file 8468515 1737906437                                         
version 3
run plain-0-20250126-09:46:57-2925
attr configname plain
attr datetime 20250126-09:46:57
attr datetimef 20250126-094657
attr experiment plain
attr inifile omnetpp.ini
attr iterationvars ""
attr iterationvarsd ""
attr iterationvarsf ""
attr measurement ""
attr network Scenario
attr processid 2925
attr repetition 0
attr replication #0
attr resultdir results
attr runnumber 0
attr seedset 0
config image-path ../../../inet-master/images:../../../veins-master/images
config *.visualizer.osgVisualizer.typename ""
config network Scenario
config sim-time-limit 300s
config debug-on-errors true
config cmdenv-express-mode true
config image-path ../../../../images
config *.node[0].numApps 1
config *.node[0].app[0].typename flooding14r.veins_inet.VeinsInetSampleApplication
config *.node[0].app[0].interface "\"wlan0\""
config *.node[0].wlan[0].opMode "\"p\""
config *.node[0].wlan[0].radio.typename Ieee80211DimensionalRadio
config *.node[0].wlan[0].radio.bandName "\"5.9 GHz\""
config *.node[0].wlan[0].radio.channelNumber 1
config *.node[0].wlan[0].radio.transmitter.power 0.50mW
config *.node[0].wlan[0].radio.bandwidth "10 MHz"
config *.node[0].wlan[*].radio.antenna.mobility.typename AttachedMobility
config *.node[0].wlan[*].radio.antenna.mobility.mobilityModule "\"^.^.^.^.mobility\""
config *.node[0].wlan[*].radio.antenna.mobility.offsetX -2.5m
config *.node[0].wlan[*].radio.antenna.mobility.offsetZ 6m
config *.node[0].wlan[*].radio.antenna.mobility.constraintAreaMinX 0m
config *.node[0].wlan[*].radio.antenna.mobility.constraintAreaMaxX 0m
config *.node[0].wlan[*].radio.antenna.mobility.constraintAreaMinY 0m
config *.node[0].wlan[*].radio.antenna.mobility.constraintAreaMaxY 0m
config *.node[0].wlan[*].radio.antenna.mobility.constraintAreaMinZ 0m
config *.node[0].wlan[*].radio.antenna.mobility.constraintAreaMaxZ 0m
config *.node[0].wlan[*].radio.displayCommunicationRange true
config *.node[0].ipv4.configurator.typename HostAutoConfigurator
config *.node[0].ipv4.configurator.interfaces "\"wlan0\""
config *.node[0].ipv4.configurator.mcastGroups "\"224.0.0.1\""
config *.node[0].mobility.typename VeinsInetMobility
config *.node[1].numApps 1
config *.node[1].app[0].typename flooding14r.veins_inet.VeinsInetSampleApplication
config *.node[1].app[0].interface "\"wlan0\""
config *.node[1].wlan[0].opMode "\"p\""
config *.node[1].wlan[0].radio.typename Ieee80211DimensionalRadio
config *.node[1].wlan[0].radio.bandName "\"5.9 GHz\""
config *.node[1].wlan[0].radio.channelNumber 1
config *.node[1].wlan[0].radio.transmitter.power 0.50mW
config *.node[1].wlan[0].radio.bandwidth "10 MHz"
config *.node[1].wlan[*].radio.antenna.mobility.typename AttachedMobility
config *.node[1].wlan[*].radio.antenna.mobility.mobilityModule "\"^.^.^.^.mobility\""
config *.node[1].wlan[*].radio.antenna.mobility.offsetX -2.5m
config *.node[1].wlan[*].radio.antenna.mobility.offsetZ 6m
config *.node[1].wlan[*].radio.antenna.mobility.constraintAreaMinX 0m
config *.node[1].wlan[*].radio.antenna.mobility.constraintAreaMaxX 0m
config *.node[1].wlan[*].radio.antenna.mobility.constraintAreaMinY 0m
config *.node[1].wlan[*].radio.antenna.mobility.constraintAreaMaxY 0m
config *.node[1].wlan[*].radio.antenna.mobility.constraintAreaMinZ 0m
config *.node[1].wlan[*].radio.antenna.mobility.constraintAreaMaxZ 0m
config *.node[1].wlan[*].radio.displayCommunicationRange true
config *.node[1].ipv4.configurator.typename HostAutoConfigurator
config *.node[1].ipv4.configurator.interfaces "\"wlan0\""
config *.node[1].ipv4.configurator.mcastGroups "\"224.0.0.1\""
config *.node[1].mobility.typename VeinsInetMobility
config *.node[2].numApps 1
config *.node[2].app[0].typename flooding14r.veins_inet.VeinsInetSampleApplication
config *.node[2].app[0].interface "\"wlan0\""
config *.node[2].wlan[0].opMode "\"p\""
config *.node[2].wlan[0].radio.typename Ieee80211DimensionalRadio
config *.node[2].wlan[0].radio.bandName "\"5.9 GHz\""
config *.node[2].wlan[0].radio.channelNumber 1
config *.node[2].wlan[0].radio.transmitter.power 0.50mW
config *.node[2].wlan[0].radio.bandwidth "10 MHz"
config *.node[2].wlan[*].radio.antenna.mobility.typename AttachedMobility
config *.node[2].wlan[*].radio.antenna.mobility.mobilityModule "\"^.^.^.^.mobility\""
config *.node[2].wlan[*].radio.antenna.mobility.offsetX -2.5m
config *.node[2].wlan[*].radio.antenna.mobility.offsetZ 6m
config *.node[2].wlan[*].radio.antenna.mobility.constraintAreaMinX 0m
config *.node[2].wlan[*].radio.antenna.mobility.constraintAreaMaxX 0m
config *.node[2].wlan[*].radio.antenna.mobility.constraintAreaMinY 0m
config *.node[2].wlan[*].radio.antenna.mobility.constraintAreaMaxY 0m
config *.node[2].wlan[*].radio.antenna.mobility.constraintAreaMinZ 0m
config *.node[2].wlan[*].radio.antenna.mobility.constraintAreaMaxZ 0m
config *.node[2].wlan[*].radio.displayCommunicationRange true
config *.node[2].ipv4.configurator.typename HostAutoConfigurator
config *.node[2].ipv4.configurator.interfaces "\"wlan0\""
config *.node[2].ipv4.configurator.mcastGroups "\"224.0.0.1\""
config *.node[2].mobility.typename VeinsInetMobility
config *.node[3].numApps 1
config *.node[3].app[0].typename flooding14r.veins_inet.VeinsInetSampleApplication
config *.node[3].app[0].interface "\"wlan0\""
config *.node[3].wlan[0].opMode "\"p\""
config *.node[3].wlan[0].radio.typename Ieee80211DimensionalRadio
config *.node[3].wlan[0].radio.bandName "\"5.9 GHz\""
config *.node[3].wlan[0].radio.channelNumber 1
config *.node[3].wlan[0].radio.transmitter.power 0.50mW
config *.node[3].wlan[0].radio.bandwidth "10 MHz"
config *.node[3].wlan[*].radio.antenna.mobility.typename AttachedMobility
config *.node[3].wlan[*].radio.antenna.mobility.mobilityModule "\"^.^.^.^.mobility\""
config *.node[3].wlan[*].radio.antenna.mobility.offsetX -2.5m
config *.node[3].wlan[*].radio.antenna.mobility.offsetZ 6m
config *.node[3].wlan[*].radio.antenna.mobility.constraintAreaMinX 0m
config *.node[3].wlan[*].radio.antenna.mobility.constraintAreaMaxX 0m
config *.node[3].wlan[*].radio.antenna.mobility.constraintAreaMinY 0m
config *.node[3].wlan[*].radio.antenna.mobility.constraintAreaMaxY 0m
config *.node[3].wlan[*].radio.antenna.mobility.constraintAreaMinZ 0m
config *.node[3].wlan[*].radio.antenna.mobility.constraintAreaMaxZ 0m
config *.node[3].wlan[*].radio.displayCommunicationRange true
config *.node[3].ipv4.configurator.typename HostAutoConfigurator
config *.node[3].ipv4.configurator.interfaces "\"wlan0\""
config *.node[3].ipv4.configurator.mcastGroups "\"224.0.0.1\""
config *.node[3].mobility.typename VeinsInetMobility
config *.node[4].numApps 1
config *.node[4].app[0].typename flooding14r.veins_inet.VeinsInetSampleApplication
config *.node[4].app[0].interface "\"wlan0\""
config *.node[4].wlan[0].opMode "\"p\""
config *.node[4].wlan[0].radio.typename Ieee80211DimensionalRadio
config *.node[4].wlan[0].radio.bandName "\"5.9 GHz\""
config *.node[4].wlan[0].radio.channelNumber 1
config *.node[4].wlan[0].radio.transmitter.power 0.50mW
config *.node[4].wlan[0].radio.bandwidth "10 MHz"
config *.node[4].wlan[*].radio.antenna.mobility.typename AttachedMobility
config *.node[4].wlan[*].radio.antenna.mobility.mobilityModule "\"^.^.^.^.mobility\""
config *.node[4].wlan[*].radio.antenna.mobility.offsetX -2.5m
config *.node[4].wlan[*].radio.antenna.mobility.offsetZ 6m
config *.node[4].wlan[*].radio.antenna.mobility.constraintAreaMinX 0m
config *.node[4].wlan[*].radio.antenna.mobility.constraintAreaMaxX 0m
config *.node[4].wlan[*].radio.antenna.mobility.constraintAreaMinY 0m
config *.node[4].wlan[*].radio.antenna.mobility.constraintAreaMaxY 0m
config *.node[4].wlan[*].radio.antenna.mobility.constraintAreaMinZ 0m
config *.node[4].wlan[*].radio.antenna.mobility.constraintAreaMaxZ 0m
config *.node[4].wlan[*].radio.displayCommunicationRange true
config *.node[4].ipv4.configurator.typename HostAutoConfigurator
config *.node[4].ipv4.configurator.interfaces "\"wlan0\""
config *.node[4].ipv4.configurator.mcastGroups "\"224.0.0.1\""
config *.node[4].mobility.typename VeinsInetMobility
config *.node[*].numApps 1
config *.node[*].app[0].typename flooding14r.veins_inet.VeinsInetSampleApplication
config *.node[*].app[0].interface "\"wlan0\""
config *.node[*].wlan[0].opMode "\"p\""
config *.node[*].wlan[0].radio.typename Ieee80211DimensionalRadio
config *.node[*].wlan[0].radio.bandName "\"5.9 GHz\""
config *.node[*].wlan[0].radio.channelNumber 3
config *.node[*].wlan[0].radio.transmitter.power 20mW
config *.node[*].wlan[0].radio.bandwidth "10 MHz"
config *.node[*].wlan[*].radio.antenna.mobility.typename AttachedMobility
config *.node[*].wlan[*].radio.antenna.mobility.mobilityModule "\"^.^.^.^.mobility\""
config *.node[*].wlan[*].radio.antenna.mobility.offsetX -2.5m
config *.node[*].wlan[*].radio.antenna.mobility.offsetZ 1.5m
config *.node[*].wlan[*].radio.antenna.mobility.constraintAreaMinX 0m
config *.node[*].wlan[*].radio.antenna.mobility.constraintAreaMaxX 0m
config *.node[*].wlan[*].radio.antenna.mobility.constraintAreaMinY 0m
config *.node[*].wlan[*].radio.antenna.mobility.constraintAreaMaxY 0m
config *.node[*].wlan[*].radio.antenna.mobility.constraintAreaMinZ 0m
config *.node[*].wlan[*].radio.antenna.mobility.constraintAreaMaxZ 0m
config *.node[*].ipv4.configurator.typename HostAutoConfigurator
config *.node[*].ipv4.configurator.interfaces "\"wlan0\""
config *.node[*].ipv4.configurator.mcastGroups "\"224.0.0.1\""
config *.node[*].mobility.typename VeinsInetMobility
config *.manager.updateInterval 0.1s
config *.manager.host "\"localhost\""
config *.manager.port 9999
config *.manager.autoShutdown true
config *.manager.launchConfig "xmldoc(\"square.launchd.xml\")"
config *.manager.moduleType "\"flooding14r.veins_inet.VeinsInetCar\""
config *.physicalEnvironment.config "xmldoc(\"obstacles.xml\")"
config *.radioMedium.obstacleLoss.typename IdealObstacleLoss
config **.vector-recording true

vector 0 Scenario.node[0].wlan[0].mac.dcf frameSequenceActive:vector ETV
attr autoWarmupFilter false
attr interpolationmode sample-hold
attr recordingmode vector
attr source warmup(count(frameSequenceStarted)-count(frameSequenceFinished))
attr title "frame sequence active"
vector 1 Scenario.node[0].wlan[0].mac.dcf.channelAccess.inProgressFrames queueLength:vector ETV
attr autoWarmupFilter false
attr interpolationmode sample-hold
attr recordingmode vector
attr source "warmup(count(packetEnqueued) - count(packetDequeued))"
attr title "queue length"
vector 2 Scenario.node[0].wlan[0].mac.dcf.channelAccess.contention backoffActive:vector ETV
attr autoWarmupFilter false
attr interpolationmode sample-hold
attr recordingmode vector
attr source warmup(count(backoffStarted)-count(backoffStopped))
attr title "backoff active"
vector 3 Scenario.node[0].udp passedUpPk:vector(count) ETV
attr interpolationmode none
attr recordingmode vector(count)
attr source packetSentToUpper
attr title "packets passed up, count"
vector 4 Scenario.node[0].udp droppedPkWrongPort:vector(count) ETV
attr interpolationmode none
attr recordingmode vector(count)
attr source packetDropReasonIsNoPortFound(packetDropped)
attr title "packets dropped (wrong port), count"
vector 5 Scenario.node[0].udp droppedPkBadChecksum:vector(count) ETV
attr interpolationmode none
attr recordingmode vector(count)
attr source packetDropReasonIsIncorrectlyReceived(packetDropped)
attr title "packets dropped (checksum error), count"
vector 6 Scenario.node[0].wlan[0].radio radioMode:vector ETV
attr interpolationmode sample-hold
attr recordingmode vector
attr source radioModeChanged
attr title "Radio mode"
vector 7 Scenario.node[0].wlan[0].radio radioChannel:vector ETV
attr interpolationmode sample-hold
attr recordingmode vector
attr source radioChannelChanged
attr title "Radio channel"
vector 8 Scenario.node[0].wlan[0].radio receptionState:vector ETV
attr interpolationmode sample-hold
attr recordingmode vector
attr source receptionStateChanged
attr title "Radio reception state"
vector 9 Scenario.node[0].wlan[0].mac.dcf.channelAccess.contention stateChanged:vector ETV
attr enum IDLE,DEFER,IFS_AND_BACKOFF
attr interpolationmode none
attr recordingmode vector
attr title "contention state changed"
attr type enum
vector 10 Scenario.node[0].wlan[0].mac.dcf.recoveryProcedure contentionWindowChanged:vector ETV
attr interpolationmode sample-hold
attr recordingmode vector
attr title "contention window"
vector 11 Scenario.node[1].wlan[0].mac.dcf frameSequenceActive:vector ETV
attr autoWarmupFilter false
attr interpolationmode sample-hold
attr recordingmode vector
attr source warmup(count(frameSequenceStarted)-count(frameSequenceFinished))
attr title "frame sequence active"
vector 12 Scenario.node[1].wlan[0].mac.dcf.channelAccess.inProgressFrames queueLength:vector ETV
attr autoWarmupFilter false
attr interpolationmode sample-hold
attr recordingmode vector
attr source "warmup(count(packetEnqueued) - count(packetDequeued))"
attr title "queue length"
vector 13 Scenario.node[1].wlan[0].mac.dcf.channelAccess.contention backoffActive:vector ETV
attr autoWarmupFilter false
attr interpolationmode sample-hold
attr recordingmode vector
attr source warmup(count(backoffStarted)-count(backoffStopped))
attr title "backoff active"
vector 14 Scenario.node[1].udp passedUpPk:vector(count) ETV
attr interpolationmode none
attr recordingmode vector(count)
attr source packetSentToUpper
attr title "packets passed up, count"
vector 15 Scenario.node[1].udp droppedPkWrongPort:vector(count) ETV
attr interpolationmode none
attr recordingmode vector(count)
attr source packetDropReasonIsNoPortFound(packetDropped)
attr title "packets dropped (wrong port), count"
vector 16 Scenario.node[1].udp droppedPkBadChecksum:vector(count) ETV
attr interpolationmode none
attr recordingmode vector(count)
attr source packetDropReasonIsIncorrectlyReceived(packetDropped)
attr title "packets dropped (checksum error), count"
vector 17 Scenario.node[1].wlan[0].radio radioMode:vector ETV
attr interpolationmode sample-hold
attr recordingmode vector
attr source radioModeChanged
attr title "Radio mode"
vector 18 Scenario.node[1].wlan[0].radio radioChannel:vector ETV
attr interpolationmode sample-hold
attr recordingmode vector
attr source radioChannelChanged
attr title "Radio channel"
vector 19 Scenario.node[1].wlan[0].radio receptionState:vector ETV
attr interpolationmode sample-hold
attr recordingmode vector
attr source receptionStateChanged
attr title "Radio reception state"
vector 20 Scenario.node[1].wlan[0].mac.dcf.channelAccess.contention stateChanged:vector ETV
attr enum IDLE,DEFER,IFS_AND_BACKOFF
attr interpolationmode none
attr recordingmode vector
attr title "contention state changed"
attr type enum
vector 21 Scenario.node[1].wlan[0].mac.dcf.recoveryProcedure contentionWindowChanged:vector ETV
attr interpolationmode sample-hold
attr recordingmode vector
attr title "contention window"
vector 22 Scenario.node[2].wlan[0].mac.dcf frameSequenceActive:vector ETV
attr autoWarmupFilter false
attr interpolationmode sample-hold
attr recordingmode vector
attr source warmup(count(frameSequenceStarted)-count(frameSequenceFinished))
attr title "frame sequence active"
vector 23 Scenario.node[2].wlan[0].mac.dcf.channelAccess.inProgressFrames queueLength:vector ETV
attr autoWarmupFilter false
attr interpolationmode sample-hold
attr recordingmode vector
attr source "warmup(count(packetEnqueued) - count(packetDequeued))"
attr title "queue length"
vector 24 Scenario.node[2].wlan[0].mac.dcf.channelAccess.contention backoffActive:vector ETV
attr autoWarmupFilter false
attr interpolationmode sample-hold
attr recordingmode vector
attr source warmup(count(backoffStarted)-count(backoffStopped))
attr title "backoff active"
vector 25 Scenario.node[2].udp passedUpPk:vector(count) ETV
attr interpolationmode none
attr recordingmode vector(count)
attr source packetSentToUpper
attr title "packets passed up, count"
vector 26 Scenario.node[2].udp droppedPkWrongPort:vector(count) ETV
attr interpolationmode none
attr recordingmode vector(count)
attr source packetDropReasonIsNoPortFound(packetDropped)
attr title "packets dropped (wrong port), count"
vector 27 Scenario.node[2].udp droppedPkBadChecksum:vector(count) ETV
attr interpolationmode none
attr recordingmode vector(count)
attr source packetDropReasonIsIncorrectlyReceived(packetDropped)
attr title "packets dropped (checksum error), count"
vector 28 Scenario.node[2].wlan[0].radio radioMode:vector ETV
attr interpolationmode sample-hold
attr recordingmode vector
attr source radioModeChanged
attr title "Radio mode"
vector 29 Scenario.node[2].wlan[0].radio radioChannel:vector ETV
attr interpolationmode sample-hold
attr recordingmode vector
attr source radioChannelChanged
attr title "Radio channel"
vector 30 Scenario.node[2].wlan[0].radio receptionState:vector ETV
attr interpolationmode sample-hold
attr recordingmode vector
attr source receptionStateChanged
attr title "Radio reception state"
vector 31 Scenario.node[2].wlan[0].mac.dcf.channelAccess.contention stateChanged:vector ETV
attr enum IDLE,DEFER,IFS_AND_BACKOFF
attr interpolationmode none
attr recordingmode vector
attr title "contention state changed"
attr type enum
vector 32 Scenario.node[2].wlan[0].mac.dcf.recoveryProcedure contentionWindowChanged:vector ETV
attr interpolationmode sample-hold
attr recordingmode vector
attr title "contention window"
vector 33 Scenario.node[3].wlan[0].mac.dcf frameSequenceActive:vector ETV
attr autoWarmupFilter false
attr interpolationmode sample-hold
attr recordingmode vector
attr source warmup(count(frameSequenceStarted)-count(frameSequenceFinished))
attr title "frame sequence active"
vector 34 Scenario.node[3].wlan[0].mac.dcf.channelAccess.inProgressFrames queueLength:vector ETV
attr autoWarmupFilter false
attr interpolationmode sample-hold
attr recordingmode vector
attr source "warmup(count(packetEnqueued) - count(packetDequeued))"
attr title "queue length"
vector 35 Scenario.node[3].wlan[0].mac.dcf.channelAccess.contention backoffActive:vector ETV
attr autoWarmupFilter false
attr interpolationmode sample-hold
attr recordingmode vector
attr source warmup(count(backoffStarted)-count(backoffStopped))
attr title "backoff active"
vector 36 Scenario.node[3].udp passedUpPk:vector(count) ETV
attr interpolationmode none
attr recordingmode vector(count)
attr source packetSentToUpper
attr title "packets passed up, count"
vector 37 Scenario.node[3].udp droppedPkWrongPort:vector(count) ETV
attr interpolationmode none
attr recordingmode vector(count)
attr source packetDropReasonIsNoPortFound(packetDropped)
attr title "packets dropped (wrong port), count"
vector 38 Scenario.node[3].udp droppedPkBadChecksum:vector(count) ETV
attr interpolationmode none
attr recordingmode vector(count)
attr source packetDropReasonIsIncorrectlyReceived(packetDropped)
attr title "packets dropped (checksum error), count"
vector 39 Scenario.node[3].wlan[0].radio radioMode:vector ETV
attr interpolationmode sample-hold
attr recordingmode vector
attr source radioModeChanged
attr title "Radio mode"
vector 40 Scenario.node[3].wlan[0].radio radioChannel:vector ETV
attr interpolationmode sample-hold
attr recordingmode vector
attr source radioChannelChanged
attr title "Radio channel"
vector 41 Scenario.node[3].wlan[0].radio receptionState:vector ETV
attr interpolationmode sample-hold
attr recordingmode vector
attr source receptionStateChanged
attr title "Radio reception state"
vector 42 Scenario.node[3].wlan[0].mac.dcf.channelAccess.contention stateChanged:vector ETV
attr enum IDLE,DEFER,IFS_AND_BACKOFF
attr interpolationmode none
attr recordingmode vector
attr title "contention state changed"
attr type enum
vector 43 Scenario.node[3].wlan[0].mac.dcf.recoveryProcedure contentionWindowChanged:vector ETV
attr interpolationmode sample-hold
attr recordingmode vector
attr title "contention window"
vector 44 Scenario.node[4].wlan[0].mac.dcf frameSequenceActive:vector ETV
attr autoWarmupFilter false
attr interpolationmode sample-hold
attr recordingmode vector
attr source warmup(count(frameSequenceStarted)-count(frameSequenceFinished))
attr title "frame sequence active"
vector 45 Scenario.node[4].wlan[0].mac.dcf.channelAccess.inProgressFrames queueLength:vector ETV
attr autoWarmupFilter false
attr interpolationmode sample-hold
attr recordingmode vector
attr source "warmup(count(packetEnqueued) - count(packetDequeued))"
attr title "queue length"
vector 46 Scenario.node[4].wlan[0].mac.dcf.channelAccess.contention backoffActive:vector ETV
attr autoWarmupFilter false
attr interpolationmode sample-hold
attr recordingmode vector
attr source warmup(count(backoffStarted)-count(backoffStopped))
attr title "backoff active"
vector 47 Scenario.node[4].udp passedUpPk:vector(count) ETV
attr interpolationmode none
attr recordingmode vector(count)
attr source packetSentToUpper
attr title "packets passed up, count"
vector 48 Scenario.node[4].udp droppedPkWrongPort:vector(count) ETV
attr interpolationmode none
attr recordingmode vector(count)
attr source packetDropReasonIsNoPortFound(packetDropped)
attr title "packets dropped (wrong port), count"
vector 49 Scenario.node[4].udp droppedPkBadChecksum:vector(count) ETV
attr interpolationmode none
attr recordingmode vector(count)
attr source packetDropReasonIsIncorrectlyReceived(packetDropped)
attr title "packets dropped (checksum error), count"
vector 50 Scenario.node[4].wlan[0].radio radioMode:vector ETV
attr interpolationmode sample-hold
attr recordingmode vector
attr source radioModeChanged
attr title "Radio mode"
vector 51 Scenario.node[4].wlan[0].radio radioChannel:vector ETV
attr interpolationmode sample-hold
attr recordingmode vector
attr source radioChannelChanged
attr title "Radio channel"
vector 52 Scenario.node[4].wlan[0].radio receptionState:vector ETV
attr interpolationmode sample-hold
attr recordingmode vector
attr source receptionStateChanged
attr title "Radio reception state"
vector 53 Scenario.node[4].wlan[0].mac.dcf.channelAccess.contention stateChanged:vector ETV
attr enum IDLE,DEFER,IFS_AND_BACKOFF
attr interpolationmode none
attr recordingmode vector
attr title "contention state changed"
attr type enum
vector 54 Scenario.node[4].wlan[0].mac.dcf.recoveryProcedure contentionWindowChanged:vector ETV
attr interpolationmode sample-hold
attr recordingmode vector
attr title "contention window"
vector 55 Scenario.node[5].wlan[0].mac.dcf frameSequenceActive:vector ETV
attr autoWarmupFilter false
attr interpolationmode sample-hold
attr recordingmode vector
attr source warmup(count(frameSequenceStarted)-count(frameSequenceFinished))
attr title "frame sequence active"
vector 56 Scenario.node[5].wlan[0].mac.dcf.channelAccess.inProgressFrames queueLength:vector ETV
attr autoWarmupFilter false
attr interpolationmode sample-hold
attr recordingmode vector
attr source "warmup(count(packetEnqueued) - count(packetDequeued))"
attr title "queue length"
vector 57 Scenario.node[5].wlan[0].mac.dcf.channelAccess.contention backoffActive:vector ETV
attr autoWarmupFilter false
attr interpolationmode sample-hold
attr recordingmode vector
attr source warmup(count(backoffStarted)-count(backoffStopped))
attr title "backoff active"
vector 58 Scenario.node[5].udp passedUpPk:vector(count) ETV
attr interpolationmode none
attr recordingmode vector(count)
attr source packetSentToUpper
attr title "packets passed up, count"
vector 59 Scenario.node[5].udp droppedPkWrongPort:vector(count) ETV
attr interpolationmode none
attr recordingmode vector(count)
attr source packetDropReasonIsNoPortFound(packetDropped)
attr title "packets dropped (wrong port), count"
vector 60 Scenario.node[5].udp droppedPkBadChecksum:vector(count) ETV
attr interpolationmode none
attr recordingmode vector(count)
attr source packetDropReasonIsIncorrectlyReceived(packetDropped)
attr title "packets dropped (checksum error), count"
vector 61 Scenario.node[5].wlan[0].radio radioMode:vector ETV
attr interpolationmode sample-hold
attr recordingmode vector
attr source radioModeChanged
attr title "Radio mode"
vector 62 Scenario.node[5].wlan[0].radio radioChannel:vector ETV
attr interpolationmode sample-hold
attr recordingmode vector
attr source radioChannelChanged
attr title "Radio channel"
vector 63 Scenario.node[5].wlan[0].radio receptionState:vector ETV
attr interpolationmode sample-hold
attr recordingmode vector
attr source receptionStateChanged
attr title "Radio reception state"
vector 64 Scenario.node[5].wlan[0].mac.dcf.channelAccess.contention stateChanged:vector ETV
attr enum IDLE,DEFER,IFS_AND_BACKOFF
attr interpolationmode none
attr recordingmode vector
attr title "contention state changed"
attr type enum
vector 65 Scenario.node[5].wlan[0].mac.dcf.recoveryProcedure contentionWindowChanged:vector ETV
attr interpolationmode sample-hold
attr recordingmode vector
attr title "contention window"
vector 66 Scenario.node[6].wlan[0].mac.dcf frameSequenceActive:vector ETV
attr autoWarmupFilter false
attr interpolationmode sample-hold
attr recordingmode vector
attr source warmup(count(frameSequenceStarted)-count(frameSequenceFinished))
attr title "frame sequence active"
vector 67 Scenario.node[6].wlan[0].mac.dcf.channelAccess.inProgressFrames queueLength:vector ETV
attr autoWarmupFilter false
attr interpolationmode sample-hold
attr recordingmode vector
attr source "warmup(count(packetEnqueued) - count(packetDequeued))"
attr title "queue length"
vector 68 Scenario.node[6].wlan[0].mac.dcf.channelAccess.contention backoffActive:vector ETV
attr autoWarmupFilter false
attr interpolationmode sample-hold
attr recordingmode vector
attr source warmup(count(backoffStarted)-count(backoffStopped))
attr title "backoff active"
vector 69 Scenario.node[6].udp passedUpPk:vector(count) ETV
attr interpolationmode none
attr recordingmode vector(count)
attr source packetSentToUpper
attr title "packets passed up, count"
vector 70 Scenario.node[6].udp droppedPkWrongPort:vector(count) ETV
attr interpolationmode none
attr recordingmode vector(count)
attr source packetDropReasonIsNoPortFound(packetDropped)
attr title "packets dropped (wrong port), count"
vector 71 Scenario.node[6].udp droppedPkBadChecksum:vector(count) ETV
attr interpolationmode none
attr recordingmode vector(count)
attr source packetDropReasonIsIncorrectlyReceived(packetDropped)
attr title "packets dropped (checksum error), count"
vector 72 Scenario.node[6].wlan[0].radio radioMode:vector ETV
attr interpolationmode sample-hold
attr recordingmode vector
attr source radioModeChanged
attr title "Radio mode"
vector 73 Scenario.node[6].wlan[0].radio radioChannel:vector ETV
attr interpolationmode sample-hold
attr recordingmode vector
attr source radioChannelChanged
attr title "Radio channel"
vector 74 Scenario.node[6].wlan[0].radio receptionState:vector ETV
attr interpolationmode sample-hold
attr recordingmode vector
attr source receptionStateChanged
attr title "Radio reception state"
vector 75 Scenario.node[6].wlan[0].mac.dcf.channelAccess.contention stateChanged:vector ETV
attr enum IDLE,DEFER,IFS_AND_BACKOFF
attr interpolationmode none
attr recordingmode vector
attr title "contention state changed"
attr type enum
vector 76 Scenario.node[6].wlan[0].mac.dcf.recoveryProcedure contentionWindowChanged:vector ETV
attr interpolationmode sample-hold
attr recordingmode vector
attr title "contention window"
vector 77 Scenario.node[7].wlan[0].mac.dcf frameSequenceActive:vector ETV
attr autoWarmupFilter false
attr interpolationmode sample-hold
attr recordingmode vector
attr source warmup(count(frameSequenceStarted)-count(frameSequenceFinished))
attr title "frame sequence active"
vector 78 Scenario.node[7].wlan[0].mac.dcf.channelAccess.inProgressFrames queueLength:vector ETV
attr autoWarmupFilter false
attr interpolationmode sample-hold
attr recordingmode vector
attr source "warmup(count(packetEnqueued) - count(packetDequeued))"
attr title "queue length"
vector 79 Scenario.node[7].wlan[0].mac.dcf.channelAccess.contention backoffActive:vector ETV
attr autoWarmupFilter false
attr interpolationmode sample-hold
attr recordingmode vector
attr source warmup(count(backoffStarted)-count(backoffStopped))
attr title "backoff active"
vector 80 Scenario.node[7].udp passedUpPk:vector(count) ETV
attr interpolationmode none
attr recordingmode vector(count)
attr source packetSentToUpper
attr title "packets passed up, count"
vector 81 Scenario.node[7].udp droppedPkWrongPort:vector(count) ETV
attr interpolationmode none
attr recordingmode vector(count)
attr source packetDropReasonIsNoPortFound(packetDropped)
attr title "packets dropped (wrong port), count"
vector 82 Scenario.node[7].udp droppedPkBadChecksum:vector(count) ETV
attr interpolationmode none
attr recordingmode vector(count)
attr source packetDropReasonIsIncorrectlyReceived(packetDropped)
attr title "packets dropped (checksum error), count"
vector 83 Scenario.node[7].wlan[0].radio radioMode:vector ETV
attr interpolationmode sample-hold
attr recordingmode vector
attr source radioModeChanged
attr title "Radio mode"
vector 84 Scenario.node[7].wlan[0].radio radioChannel:vector ETV
attr interpolationmode sample-hold
attr recordingmode vector
attr source radioChannelChanged
attr title "Radio channel"
vector 85 Scenario.node[7].wlan[0].radio receptionState:vector ETV
attr interpolationmode sample-hold
attr recordingmode vector
attr source receptionStateChanged
attr title "Radio reception state"
vector 86 Scenario.node[7].wlan[0].mac.dcf.channelAccess.contention stateChanged:vector ETV
attr enum IDLE,DEFER,IFS_AND_BACKOFF
attr interpolationmode none
attr recordingmode vector
attr title "contention state changed"
attr type enum
vector 87 Scenario.node[7].wlan[0].mac.dcf.recoveryProcedure contentionWindowChanged:vector ETV
attr interpolationmode sample-hold
attr recordingmode vector
attr title "contention window"
vector 88 Scenario.node[8].wlan[0].mac.dcf frameSequenceActive:vector ETV
attr autoWarmupFilter false
attr interpolationmode sample-hold
attr recordingmode vector
attr source warmup(count(frameSequenceStarted)-count(frameSequenceFinished))
attr title "frame sequence active"
vector 89 Scenario.node[8].wlan[0].mac.dcf.channelAccess.inProgressFrames queueLength:vector ETV
attr autoWarmupFilter false
attr interpolationmode sample-hold
attr recordingmode vector
attr source "warmup(count(packetEnqueued) - count(packetDequeued))"
attr title "queue length"
vector 90 Scenario.node[8].wlan[0].mac.dcf.channelAccess.contention backoffActive:vector ETV
attr autoWarmupFilter false
attr interpolationmode sample-hold
attr recordingmode vector
attr source warmup(count(backoffStarted)-count(backoffStopped))
attr title "backoff active"
vector 91 Scenario.node[8].udp passedUpPk:vector(count) ETV
attr interpolationmode none
attr recordingmode vector(count)
attr source packetSentToUpper
attr title "packets passed up, count"
vector 92 Scenario.node[8].udp droppedPkWrongPort:vector(count) ETV
attr interpolationmode none
attr recordingmode vector(count)
attr source packetDropReasonIsNoPortFound(packetDropped)
attr title "packets dropped (wrong port), count"
vector 93 Scenario.node[8].udp droppedPkBadChecksum:vector(count) ETV
attr interpolationmode none
attr recordingmode vector(count)
attr source packetDropReasonIsIncorrectlyReceived(packetDropped)
attr title "packets dropped (checksum error), count"
vector 94 Scenario.node[8].wlan[0].radio radioMode:vector ETV
attr interpolationmode sample-hold
attr recordingmode vector
attr source radioModeChanged
attr title "Radio mode"
vector 95 Scenario.node[8].wlan[0].radio radioChannel:vector ETV
attr interpolationmode sample-hold
attr recordingmode vector
attr source radioChannelChanged
attr title "Radio channel"
vector 96 Scenario.node[8].wlan[0].radio receptionState:vector ETV
attr interpolationmode sample-hold
attr recordingmode vector
attr source receptionStateChanged
attr title "Radio reception state"
vector 97 Scenario.node[8].wlan[0].mac.dcf.channelAccess.contention stateChanged:vector ETV
attr enum IDLE,DEFER,IFS_AND_BACKOFF
attr interpolationmode none
attr recordingmode vector
attr title "contention state changed"
attr type enum
vector 98 Scenario.node[8].wlan[0].mac.dcf.recoveryProcedure contentionWindowChanged:vector ETV
attr interpolationmode sample-hold
attr recordingmode vector
attr title "contention window"
vector 99 Scenario.node[9].wlan[0].mac.dcf frameSequenceActive:vector ETV
attr autoWarmupFilter false
attr interpolationmode sample-hold
attr recordingmode vector
attr source warmup(count(frameSequenceStarted)-count(frameSequenceFinished))
attr title "frame sequence active"
vector 100 Scenario.node[9].wlan[0].mac.dcf.channelAccess.inProgressFrames queueLength:vector ETV
attr autoWarmupFilter false
attr interpolationmode sample-hold
attr recordingmode vector
attr source "warmup(count(packetEnqueued) - count(packetDequeued))"
attr title "queue length"
vector 101 Scenario.node[9].wlan[0].mac.dcf.channelAccess.contention backoffActive:vector ETV
attr autoWarmupFilter false
attr interpolationmode sample-hold
attr recordingmode vector
attr source warmup(count(backoffStarted)-count(backoffStopped))
attr title "backoff active"
vector 102 Scenario.node[9].udp passedUpPk:vector(count) ETV
attr interpolationmode none
attr recordingmode vector(count)
attr source packetSentToUpper
attr title "packets passed up, count"
vector 103 Scenario.node[9].udp droppedPkWrongPort:vector(count) ETV
attr interpolationmode none
attr recordingmode vector(count)
attr source packetDropReasonIsNoPortFound(packetDropped)
attr title "packets dropped (wrong port), count"
vector 104 Scenario.node[9].udp droppedPkBadChecksum:vector(count) ETV
attr interpolationmode none
attr recordingmode vector(count)
attr source packetDropReasonIsIncorrectlyReceived(packetDropped)
attr title "packets dropped (checksum error), count"
vector 105 Scenario.node[9].wlan[0].radio radioMode:vector ETV
attr interpolationmode sample-hold
attr recordingmode vector
attr source radioModeChanged
attr title "Radio mode"
vector 106 Scenario.node[9].wlan[0].radio radioChannel:vector ETV
attr interpolationmode sample-hold
attr recordingmode vector
attr source radioChannelChanged
attr title "Radio channel"
vector 107 Scenario.node[9].wlan[0].radio receptionState:vector ETV
attr interpolationmode sample-hold
attr recordingmode vector
attr source receptionStateChanged
attr title "Radio reception state"
vector 108 Scenario.node[9].wlan[0].mac.dcf.channelAccess.contention stateChanged:vector ETV
attr enum IDLE,DEFER,IFS_AND_BACKOFF
attr interpolationmode none
attr recordingmode vector
attr title "contention state changed"
attr type enum
vector 109 Scenario.node[9].wlan[0].mac.dcf.recoveryProcedure contentionWindowChanged:vector ETV
attr interpolationmode sample-hold
attr recordingmode vector
attr title "contention window"
vector 110 Scenario.node[10].wlan[0].mac.dcf frameSequenceActive:vector ETV
attr autoWarmupFilter false
attr interpolationmode sample-hold
attr recordingmode vector
attr source warmup(count(frameSequenceStarted)-count(frameSequenceFinished))
attr title "frame sequence active"
vector 111 Scenario.node[10].wlan[0].mac.dcf.channelAccess.inProgressFrames queueLength:vector ETV
attr autoWarmupFilter false
attr interpolationmode sample-hold
attr recordingmode vector
attr source "warmup(count(packetEnqueued) - count(packetDequeued))"
attr title "queue length"
vector 112 Scenario.node[10].wlan[0].mac.dcf.channelAccess.contention backoffActive:vector ETV
attr autoWarmupFilter false
attr interpolationmode sample-hold
attr recordingmode vector
attr source warmup(count(backoffStarted)-count(backoffStopped))
attr title "backoff active"
vector 113 Scenario.node[10].udp passedUpPk:vector(count) ETV
attr interpolationmode none
attr recordingmode vector(count)
attr source packetSentToUpper
attr title "packets passed up, count"
vector 114 Scenario.node[10].udp droppedPkWrongPort:vector(count) ETV
attr interpolationmode none
attr recordingmode vector(count)
attr source packetDropReasonIsNoPortFound(packetDropped)
attr title "packets dropped (wrong port), count"
vector 115 Scenario.node[10].udp droppedPkBadChecksum:vector(count) ETV
attr interpolationmode none
attr recordingmode vector(count)
attr source packetDropReasonIsIncorrectlyReceived(packetDropped)
attr title "packets dropped (checksum error), count"
vector 116 Scenario.node[10].wlan[0].radio radioMode:vector ETV
attr interpolationmode sample-hold
attr recordingmode vector
attr source radioModeChanged
attr title "Radio mode"
vector 117 Scenario.node[10].wlan[0].radio radioChannel:vector ETV
attr interpolationmode sample-hold
attr recordingmode vector
attr source radioChannelChanged
attr title "Radio channel"
vector 118 Scenario.node[10].wlan[0].radio receptionState:vector ETV
attr interpolationmode sample-hold
attr recordingmode vector
attr source receptionStateChanged
attr title "Radio reception state"
vector 119 Scenario.node[10].wlan[0].mac.dcf.channelAccess.contention stateChanged:vector ETV
attr enum IDLE,DEFER,IFS_AND_BACKOFF
attr interpolationmode none
attr recordingmode vector
attr title "contention state changed"
attr type enum
vector 120 Scenario.node[10].wlan[0].mac.dcf.recoveryProcedure contentionWindowChanged:vector ETV
attr interpolationmode sample-hold
attr recordingmode vector
attr title "contention window"
vector 121 Scenario.node[11].wlan[0].mac.dcf frameSequenceActive:vector ETV
attr autoWarmupFilter false
attr interpolationmode sample-hold
attr recordingmode vector
attr source warmup(count(frameSequenceStarted)-count(frameSequenceFinished))
attr title "frame sequence active"
vector 122 Scenario.node[11].wlan[0].mac.dcf.channelAccess.inProgressFrames queueLength:vector ETV
attr autoWarmupFilter false
attr interpolationmode sample-hold
attr recordingmode vector
attr source "warmup(count(packetEnqueued) - count(packetDequeued))"
attr title "queue length"
vector 123 Scenario.node[11].wlan[0].mac.dcf.channelAccess.contention backoffActive:vector ETV
attr autoWarmupFilter false
attr interpolationmode sample-hold
attr recordingmode vector
attr source warmup(count(backoffStarted)-count(backoffStopped))
attr title "backoff active"
vector 124 Scenario.node[11].udp passedUpPk:vector(count) ETV
attr interpolationmode none
attr recordingmode vector(count)
attr source packetSentToUpper
attr title "packets passed up, count"
vector 125 Scenario.node[11].udp droppedPkWrongPort:vector(count) ETV
attr interpolationmode none
attr recordingmode vector(count)
attr source packetDropReasonIsNoPortFound(packetDropped)
attr title "packets dropped (wrong port), count"
vector 126 Scenario.node[11].udp droppedPkBadChecksum:vector(count) ETV
attr interpolationmode none
attr recordingmode vector(count)
attr source packetDropReasonIsIncorrectlyReceived(packetDropped)
attr title "packets dropped (checksum error), count"
vector 127 Scenario.node[11].wlan[0].radio radioMode:vector ETV
attr interpolationmode sample-hold
attr recordingmode vector
attr source radioModeChanged
attr title "Radio mode"
vector 128 Scenario.node[11].wlan[0].radio radioChannel:vector ETV
attr interpolationmode sample-hold
attr recordingmode vector
attr source radioChannelChanged
attr title "Radio channel"
vector 129 Scenario.node[11].wlan[0].radio receptionState:vector ETV
attr interpolationmode sample-hold
attr recordingmode vector
attr source receptionStateChanged
attr title "Radio reception state"
vector 130 Scenario.node[11].wlan[0].mac.dcf.channelAccess.contention stateChanged:vector ETV
attr enum IDLE,DEFER,IFS_AND_BACKOFF
attr interpolationmode none
attr recordingmode vector
attr title "contention state changed"
attr type enum
vector 131 Scenario.node[11].wlan[0].mac.dcf.recoveryProcedure contentionWindowChanged:vector ETV
attr interpolationmode sample-hold
attr recordingmode vector
attr title "contention window"
vector 132 Scenario.node[12].wlan[0].mac.dcf frameSequenceActive:vector ETV
attr autoWarmupFilter false
attr interpolationmode sample-hold
attr recordingmode vector
attr source warmup(count(frameSequenceStarted)-count(frameSequenceFinished))
attr title "frame sequence active"
vector 133 Scenario.node[12].wlan[0].mac.dcf.channelAccess.inProgressFrames queueLength:vector ETV
attr autoWarmupFilter false
attr interpolationmode sample-hold
attr recordingmode vector
attr source "warmup(count(packetEnqueued) - count(packetDequeued))"
attr title "queue length"
vector 134 Scenario.node[12].wlan[0].mac.dcf.channelAccess.contention backoffActive:vector ETV
attr autoWarmupFilter false
attr interpolationmode sample-hold
attr recordingmode vector
attr source warmup(count(backoffStarted)-count(backoffStopped))
attr title "backoff active"
vector 135 Scenario.node[12].udp passedUpPk:vector(count) ETV
attr interpolationmode none
attr recordingmode vector(count)
attr source packetSentToUpper
attr title "packets passed up, count"
vector 136 Scenario.node[12].udp droppedPkWrongPort:vector(count) ETV
attr interpolationmode none
attr recordingmode vector(count)
attr source packetDropReasonIsNoPortFound(packetDropped)
attr title "packets dropped (wrong port), count"
vector 137 Scenario.node[12].udp droppedPkBadChecksum:vector(count) ETV
attr interpolationmode none
attr recordingmode vector(count)
attr source packetDropReasonIsIncorrectlyReceived(packetDropped)
attr title "packets dropped (checksum error), count"
vector 138 Scenario.node[12].wlan[0].radio radioMode:vector ETV
attr interpolationmode sample-hold
attr recordingmode vector
attr source radioModeChanged
attr title "Radio mode"
vector 139 Scenario.node[12].wlan[0].radio radioChannel:vector ETV
attr interpolationmode sample-hold
attr recordingmode vector
attr source radioChannelChanged
attr title "Radio channel"
vector 140 Scenario.node[12].wlan[0].radio receptionState:vector ETV
attr interpolationmode sample-hold
attr recordingmode vector
attr source receptionStateChanged
attr title "Radio reception state"
vector 141 Scenario.node[12].wlan[0].mac.dcf.channelAccess.contention stateChanged:vector ETV
attr enum IDLE,DEFER,IFS_AND_BACKOFF
attr interpolationmode none
attr recordingmode vector
attr title "contention state changed"
attr type enum
vector 142 Scenario.node[12].wlan[0].mac.dcf.recoveryProcedure contentionWindowChanged:vector ETV
attr interpolationmode sample-hold
attr recordingmode vector
attr title "contention window"
vector 143 Scenario.node[13].wlan[0].mac.dcf frameSequenceActive:vector ETV
attr autoWarmupFilter false
attr interpolationmode sample-hold
attr recordingmode vector
attr source warmup(count(frameSequenceStarted)-count(frameSequenceFinished))
attr title "frame sequence active"
vector 144 Scenario.node[13].wlan[0].mac.dcf.channelAccess.inProgressFrames queueLength:vector ETV
attr autoWarmupFilter false
attr interpolationmode sample-hold
attr recordingmode vector
attr source "warmup(count(packetEnqueued) - count(packetDequeued))"
attr title "queue length"
vector 145 Scenario.node[13].wlan[0].mac.dcf.channelAccess.contention backoffActive:vector ETV
attr autoWarmupFilter false
attr interpolationmode sample-hold
attr recordingmode vector
attr source warmup(count(backoffStarted)-count(backoffStopped))
attr title "backoff active"
vector 146 Scenario.node[13].udp passedUpPk:vector(count) ETV
attr interpolationmode none
attr recordingmode vector(count)
attr source packetSentToUpper
attr title "packets passed up, count"
vector 147 Scenario.node[13].udp droppedPkWrongPort:vector(count) ETV
attr interpolationmode none
attr recordingmode vector(count)
attr source packetDropReasonIsNoPortFound(packetDropped)
attr title "packets dropped (wrong port), count"
vector 148 Scenario.node[13].udp droppedPkBadChecksum:vector(count) ETV
attr interpolationmode none
attr recordingmode vector(count)
attr source packetDropReasonIsIncorrectlyReceived(packetDropped)
attr title "packets dropped (checksum error), count"
vector 149 Scenario.node[13].wlan[0].radio radioMode:vector ETV
attr interpolationmode sample-hold
attr recordingmode vector
attr source radioModeChanged
attr title "Radio mode"
vector 150 Scenario.node[13].wlan[0].radio radioChannel:vector ETV
attr interpolationmode sample-hold
attr recordingmode vector
attr source radioChannelChanged
attr title "Radio channel"
vector 151 Scenario.node[13].wlan[0].radio receptionState:vector ETV
attr interpolationmode sample-hold
attr recordingmode vector
attr source receptionStateChanged
attr title "Radio reception state"
vector 152 Scenario.node[13].wlan[0].mac.dcf.channelAccess.contention stateChanged:vector ETV
attr enum IDLE,DEFER,IFS_AND_BACKOFF
attr interpolationmode none
attr recordingmode vector
attr title "contention state changed"
attr type enum
vector 153 Scenario.node[13].wlan[0].mac.dcf.recoveryProcedure contentionWindowChanged:vector ETV
attr interpolationmode sample-hold
attr recordingmode vector
attr title "contention window"
vector 154 Scenario.node[14].wlan[0].mac.dcf frameSequenceActive:vector ETV
attr autoWarmupFilter false
attr interpolationmode sample-hold
attr recordingmode vector
attr source warmup(count(frameSequenceStarted)-count(frameSequenceFinished))
attr title "frame sequence active"
vector 155 Scenario.node[14].wlan[0].mac.dcf.channelAccess.inProgressFrames queueLength:vector ETV
attr autoWarmupFilter false
attr interpolationmode sample-hold
attr recordingmode vector
attr source "warmup(count(packetEnqueued) - count(packetDequeued))"
attr title "queue length"
vector 156 Scenario.node[14].wlan[0].mac.dcf.channelAccess.contention backoffActive:vector ETV
attr autoWarmupFilter false
attr interpolationmode sample-hold
attr recordingmode vector
attr source warmup(count(backoffStarted)-count(backoffStopped))
attr title "backoff active"
vector 157 Scenario.node[14].udp passedUpPk:vector(count) ETV
attr interpolationmode none
attr recordingmode vector(count)
attr source packetSentToUpper
attr title "packets passed up, count"
vector 158 Scenario.node[14].udp droppedPkWrongPort:vector(count) ETV
attr interpolationmode none
attr recordingmode vector(count)
attr source packetDropReasonIsNoPortFound(packetDropped)
attr title "packets dropped (wrong port), count"
vector 159 Scenario.node[14].udp droppedPkBadChecksum:vector(count) ETV
attr interpolationmode none
attr recordingmode vector(count)
attr source packetDropReasonIsIncorrectlyReceived(packetDropped)
attr title "packets dropped (checksum error), count"
vector 160 Scenario.node[14].wlan[0].radio radioMode:vector ETV
attr interpolationmode sample-hold
attr recordingmode vector
attr source radioModeChanged
attr title "Radio mode"
vector 161 Scenario.node[14].wlan[0].radio radioChannel:vector ETV
attr interpolationmode sample-hold
attr recordingmode vector
attr source radioChannelChanged
attr title "Radio channel"
vector 162 Scenario.node[14].wlan[0].radio receptionState:vector ETV
attr interpolationmode sample-hold
attr recordingmode vector
attr source receptionStateChanged
attr title "Radio reception state"
vector 163 Scenario.node[14].wlan[0].mac.dcf.channelAccess.contention stateChanged:vector ETV
attr enum IDLE,DEFER,IFS_AND_BACKOFF
attr interpolationmode none
attr recordingmode vector
attr title "contention state changed"
attr type enum
vector 164 Scenario.node[14].wlan[0].mac.dcf.recoveryProcedure contentionWindowChanged:vector ETV
attr interpolationmode sample-hold
attr recordingmode vector
attr title "contention window"
vector 165 Scenario.node[5].app[0] packetSent:vector(packetBytes) ETV
attr interpolationmode none
attr recordingmode vector(packetBytes)
attr source packetSent
attr title "packets sent, packetBytes"
vector 166 Scenario.node[5].udp packetSent:vector(packetBytes) ETV
attr interpolationmode none
attr recordingmode vector(packetBytes)
attr source packetSent
attr title "packets sent, packetBytes"
vector 167 Scenario.node[5].lo[0].lo rcvdPkFromHl:vector(packetBytes) ETV
attr interpolationmode none
attr recordingmode vector(packetBytes)
attr source packetReceivedFromUpper
attr title "packets received from higher layer, packetBytes"
vector 168 Scenario.node[5].lo[0].lo passedUpPk:vector(packetBytes) ETV
attr interpolationmode none
attr recordingmode vector(packetBytes)
attr source packetSentToUpper
attr title "packets passed to higher layer, packetBytes"
vector 169 Scenario.node[5].wlan[0].mac packetReceivedFromUpper:vector(packetBytes) ETV
attr interpolationmode none
attr recordingmode vector(packetBytes)
attr title "packets received from upper layer, packetBytes"
vector 170 Scenario.node[5].wlan[0].mac.dcf.channelAccess.pendingQueue incomingPacketLengths:vector ETV
attr interpolationmode none
attr recordingmode vector
attr source packetLength(packetPushStarted)
attr title "incoming packet lengths"
attr unit b
vector 171 Scenario.node[5].wlan[0].mac.dcf.channelAccess.pendingQueue incomingDataRate:vector ETV
attr interpolationmode linear
attr recordingmode vector
attr source throughput(packetPushStarted)
attr title "incoming datarate"
attr unit bps
vector 172 Scenario.node[5].wlan[0].mac.dcf.channelAccess.pendingQueue queueLength:vector ETV
attr autoWarmupFilter false
attr interpolationmode sample-hold
attr recordingmode vector
attr source "warmup(atomic(constant0(packetPushEnded) + count(packetPushStarted) - count(packetPulled) - count(packetRemoved) - count(packetDropped)))"
attr title "queue length"
attr unit pk
vector 173 Scenario.node[5].wlan[0].mac.dcf.channelAccess.pendingQueue queueBitLength:vector ETV
attr autoWarmupFilter false
attr interpolationmode sample-hold
attr recordingmode vector
attr source "warmup(atomic(constant0(packetPushEnded) + sum(packetLength(packetPushStarted)) - sum(packetLength(packetPulled)) - sum(packetLength(packetRemoved)) - sum(packetLength(packetDropped))))"
attr title "queue bit length"
attr unit b
vector 174 Scenario.node[5].wlan[0].mac.dcf.channelAccess.contention backoffPeriodGenerated:vector ETV
attr interpolationmode none
attr recordingmode vector
attr title "backoff periods"
vector 175 Scenario.node[5].udp packetReceived:vector(packetBytes) ETV
attr interpolationmode none
attr recordingmode vector(packetBytes)
attr source packetReceived
attr title "packets received, packetBytes"
vector 176 Scenario.node[5].app[0] packetReceived:vector(packetBytes) ETV
attr interpolationmode none
attr recordingmode vector(packetBytes)
attr source packetReceived
attr title "packets received, packetBytes"
vector 177 Scenario.node[5].app[0] throughput:vector ETV
attr recordingmode vector
attr source throughput(packetReceived)
attr title throughput
attr unit bps
vector 178 Scenario.node[5].app[0] rcvdPkLifetime:vector ETV
attr interpolationmode none
attr recordingmode vector
attr source dataAge(packetReceived)
attr title "received packet lifetime"
attr unit s
vector 179 Scenario.node[5].wlan[0].mac.dcf.channelAccess.pendingQueue queueingTime:vector ETV
attr interpolationmode none
attr recordingmode vector
attr source queueingTime(packetPulled)
attr title "queueing times"
attr unit s
vector 180 Scenario.node[5].wlan[0].mac.dcf.channelAccess.pendingQueue outgoingPacketLengths:vector ETV
attr interpolationmode none
attr recordingmode vector
attr source packetLength(packetPulled)
attr title "outgoing packet lengths"
attr unit b
vector 181 Scenario.node[5].wlan[0].mac.dcf.channelAccess.pendingQueue outgoingDataRate:vector ETV
attr interpolationmode linear
attr recordingmode vector
attr source throughput(packetPulled)
attr title "outgoing datarate"
attr unit bps
vector 182 Scenario.node[5].wlan[0].mac.dcf datarateSelected:vector ETV
attr interpolationmode none
attr recordingmode vector
attr title "datarates selected"
vector 183 Scenario.node[5].wlan[0].mac packetSentToLower:vector(packetBytes) ETV
attr interpolationmode none
attr recordingmode vector(packetBytes)
attr title "packets sent to lower layer, packetBytes"
vector 184 Scenario.node[5].wlan[0].radio transmissionState:vector ETV
attr interpolationmode sample-hold
attr recordingmode vector
attr source transmissionStateChanged
attr title "Radio transmission state"
vector 185 Scenario.node[5].wlan[0].mac.dcf packetSentToPeer:vector(packetBytes) ETV
attr interpolationmode none
attr recordingmode vector(packetBytes)
attr title "packets sent, packetBytes"
vector 186 Scenario.node[5].wlan[0].mac.dcf packetSentToPeerMulticast:vector(packetBytes) ETV
attr interpolationmode none
attr recordingmode vector(packetBytes)
attr source ieee80211Multicast(packetSentToPeer)
attr title "packets sent: multicast, packetBytes"
vector 187 Scenario.node[5].wlan[0].mac.dcf packetSentToPeerWithoutRetry:vector(packetBytes) ETV
attr interpolationmode none
attr recordingmode vector(packetBytes)
attr source ieee80211NotRetry(packetSentToPeer)
attr title "packets sent: without retry, packetBytes"
vector 188 Scenario.node[5].wlan[0].mac.dcf.channelAccess.inProgressFrames queueingTime:vector ETV
attr interpolationmode none
attr recordingmode vector
attr source queueingTime(packetDequeued)
attr title "queueing times"
vector 189 Scenario.node[6].wlan[0].mac packetReceivedFromLower:vector(packetBytes) ETV
attr interpolationmode none
attr recordingmode vector(packetBytes)
attr title "packets received from lower layer, packetBytes"
vector 190 Scenario.node[6].wlan[0].mac.dcf packetReceivedFromPeer:vector(packetBytes) ETV
attr interpolationmode none
attr recordingmode vector(packetBytes)
attr title "packets received, packetBytes"
vector 191 Scenario.node[6].wlan[0].mac.dcf packetReceivedFromPeerMulticast:vector(packetBytes) ETV
attr interpolationmode none
attr recordingmode vector(packetBytes)
attr source ieee80211Multicast(packetReceivedFromPeer)
attr title "packets received: multicast, packetBytes"
vector 192 Scenario.node[6].wlan[0].mac.dcf packetReceivedFromPeerWithoutRetry:vector(packetBytes) ETV
attr interpolationmode none
attr recordingmode vector(packetBytes)
attr source ieee80211NotRetry(packetReceivedFromPeer)
attr title "packets received: without retry, packetBytes"
vector 193 Scenario.node[6].wlan[0].mac packetSentToUpper:vector(packetBytes) ETV
attr interpolationmode none
attr recordingmode vector(packetBytes)
attr title "packets sent to upper layer, packetBytes"
vector 194 Scenario.node[6].udp packetReceived:vector(packetBytes) ETV
attr interpolationmode none
attr recordingmode vector(packetBytes)
attr source packetReceived
attr title "packets received, packetBytes"
vector 195 Scenario.node[6].app[0] packetReceived:vector(packetBytes) ETV
attr interpolationmode none
attr recordingmode vector(packetBytes)
attr source packetReceived
attr title "packets received, packetBytes"
vector 196 Scenario.node[6].app[0] throughput:vector ETV
attr recordingmode vector
attr source throughput(packetReceived)
attr title throughput
attr unit bps
vector 197 Scenario.node[6].app[0] rcvdPkLifetime:vector ETV
attr interpolationmode none
attr recordingmode vector
attr source dataAge(packetReceived)
attr title "received packet lifetime"
attr unit s
vector 198 Scenario.node[6].app[0] packetSent:vector(packetBytes) ETV
attr interpolationmode none
attr recordingmode vector(packetBytes)
attr source packetSent
attr title "packets sent, packetBytes"
vector 199 Scenario.node[6].udp packetSent:vector(packetBytes) ETV
attr interpolationmode none
attr recordingmode vector(packetBytes)
attr source packetSent
attr title "packets sent, packetBytes"
vector 200 Scenario.node[6].lo[0].lo rcvdPkFromHl:vector(packetBytes) ETV
attr interpolationmode none
attr recordingmode vector(packetBytes)
attr source packetReceivedFromUpper
attr title "packets received from higher layer, packetBytes"
vector 201 Scenario.node[6].lo[0].lo passedUpPk:vector(packetBytes) ETV
attr interpolationmode none
attr recordingmode vector(packetBytes)
attr source packetSentToUpper
attr title "packets passed to higher layer, packetBytes"
vector 202 Scenario.node[6].wlan[0].mac packetReceivedFromUpper:vector(packetBytes) ETV
attr interpolationmode none
attr recordingmode vector(packetBytes)
attr title "packets received from upper layer, packetBytes"
vector 203 Scenario.node[6].wlan[0].mac.dcf.channelAccess.pendingQueue incomingPacketLengths:vector ETV
attr interpolationmode none
attr recordingmode vector
attr source packetLength(packetPushStarted)
attr title "incoming packet lengths"
attr unit b
vector 204 Scenario.node[6].wlan[0].mac.dcf.channelAccess.pendingQueue incomingDataRate:vector ETV
attr interpolationmode linear
attr recordingmode vector
attr source throughput(packetPushStarted)
attr title "incoming datarate"
attr unit bps
vector 205 Scenario.node[6].wlan[0].mac.dcf.channelAccess.pendingQueue queueLength:vector ETV
attr autoWarmupFilter false
attr interpolationmode sample-hold
attr recordingmode vector
attr source "warmup(atomic(constant0(packetPushEnded) + count(packetPushStarted) - count(packetPulled) - count(packetRemoved) - count(packetDropped)))"
attr title "queue length"
attr unit pk
vector 206 Scenario.node[6].wlan[0].mac.dcf.channelAccess.pendingQueue queueBitLength:vector ETV
attr autoWarmupFilter false
attr interpolationmode sample-hold
attr recordingmode vector
attr source "warmup(atomic(constant0(packetPushEnded) + sum(packetLength(packetPushStarted)) - sum(packetLength(packetPulled)) - sum(packetLength(packetRemoved)) - sum(packetLength(packetDropped))))"
attr title "queue bit length"
attr unit b
vector 207 Scenario.node[6].wlan[0].mac.dcf.channelAccess.contention backoffPeriodGenerated:vector ETV
attr interpolationmode none
attr recordingmode vector
attr title "backoff periods"
vector 208 Scenario.node[14].wlan[0].mac packetReceivedFromLower:vector(packetBytes) ETV
attr interpolationmode none
attr recordingmode vector(packetBytes)
attr title "packets received from lower layer, packetBytes"
vector 209 Scenario.node[14].wlan[0].mac.dcf packetReceivedFromPeer:vector(packetBytes) ETV
attr interpolationmode none
attr recordingmode vector(packetBytes)
attr title "packets received, packetBytes"
vector 210 Scenario.node[14].wlan[0].mac.dcf packetReceivedFromPeerMulticast:vector(packetBytes) ETV
attr interpolationmode none
attr recordingmode vector(packetBytes)
attr source ieee80211Multicast(packetReceivedFromPeer)
attr title "packets received: multicast, packetBytes"
vector 211 Scenario.node[14].wlan[0].mac.dcf packetReceivedFromPeerWithoutRetry:vector(packetBytes) ETV
attr interpolationmode none
attr recordingmode vector(packetBytes)
attr source ieee80211NotRetry(packetReceivedFromPeer)
attr title "packets received: without retry, packetBytes"
vector 212 Scenario.node[14].wlan[0].mac packetSentToUpper:vector(packetBytes) ETV
attr interpolationmode none
attr recordingmode vector(packetBytes)
attr title "packets sent to upper layer, packetBytes"
vector 213 Scenario.node[14].udp packetReceived:vector(packetBytes) ETV
attr interpolationmode none
attr recordingmode vector(packetBytes)
attr source packetReceived
attr title "packets received, packetBytes"
vector 214 Scenario.node[14].app[0] packetReceived:vector(packetBytes) ETV
attr interpolationmode none
attr recordingmode vector(packetBytes)
attr source packetReceived
attr title "packets received, packetBytes"
vector 215 Scenario.node[14].app[0] throughput:vector ETV
attr recordingmode vector
attr source throughput(packetReceived)
attr title throughput
attr unit bps
vector 216 Scenario.node[14].app[0] rcvdPkLifetime:vector ETV
attr interpolationmode none
attr recordingmode vector
attr source dataAge(packetReceived)
attr title "received packet lifetime"
attr unit s
vector 217 Scenario.node[14].app[0] packetSent:vector(packetBytes) ETV
attr interpolationmode none
attr recordingmode vector(packetBytes)
attr source packetSent
attr title "packets sent, packetBytes"
vector 218 Scenario.node[14].udp packetSent:vector(packetBytes) ETV
attr interpolationmode none
attr recordingmode vector(packetBytes)
attr source packetSent
attr title "packets sent, packetBytes"
vector 219 Scenario.node[14].lo[0].lo rcvdPkFromHl:vector(packetBytes) ETV
attr interpolationmode none
attr recordingmode vector(packetBytes)
attr source packetReceivedFromUpper
attr title "packets received from higher layer, packetBytes"
vector 220 Scenario.node[14].lo[0].lo passedUpPk:vector(packetBytes) ETV
attr interpolationmode none
attr recordingmode vector(packetBytes)
attr source packetSentToUpper
attr title "packets passed to higher layer, packetBytes"
vector 221 Scenario.node[14].wlan[0].mac packetReceivedFromUpper:vector(packetBytes) ETV
attr interpolationmode none
attr recordingmode vector(packetBytes)
attr title "packets received from upper layer, packetBytes"
vector 222 Scenario.node[14].wlan[0].mac.dcf.channelAccess.pendingQueue incomingPacketLengths:vector ETV
attr interpolationmode none
attr recordingmode vector
attr source packetLength(packetPushStarted)
attr title "incoming packet lengths"
attr unit b
vector 223 Scenario.node[14].wlan[0].mac.dcf.channelAccess.pendingQueue incomingDataRate:vector ETV
attr interpolationmode linear
attr recordingmode vector
attr source throughput(packetPushStarted)
attr title "incoming datarate"
attr unit bps
vector 224 Scenario.node[14].wlan[0].mac.dcf.channelAccess.pendingQueue queueLength:vector ETV
attr autoWarmupFilter false
attr interpolationmode sample-hold
attr recordingmode vector
attr source "warmup(atomic(constant0(packetPushEnded) + count(packetPushStarted) - count(packetPulled) - count(packetRemoved) - count(packetDropped)))"
attr title "queue length"
attr unit pk
vector 225 Scenario.node[14].wlan[0].mac.dcf.channelAccess.pendingQueue queueBitLength:vector ETV
attr autoWarmupFilter false
attr interpolationmode sample-hold
attr recordingmode vector
attr source "warmup(atomic(constant0(packetPushEnded) + sum(packetLength(packetPushStarted)) - sum(packetLength(packetPulled)) - sum(packetLength(packetRemoved)) - sum(packetLength(packetDropped))))"
attr title "queue bit length"
attr unit b
vector 226 Scenario.node[14].wlan[0].mac.dcf.channelAccess.contention backoffPeriodGenerated:vector ETV
attr interpolationmode none
attr recordingmode vector
attr title "backoff periods"
vector 227 Scenario.node[13].wlan[0].mac packetReceivedFromLower:vector(packetBytes) ETV
attr interpolationmode none
attr recordingmode vector(packetBytes)
attr title "packets received from lower layer, packetBytes"
vector 228 Scenario.node[13].wlan[0].mac.dcf packetReceivedFromPeer:vector(packetBytes) ETV
attr interpolationmode none
attr recordingmode vector(packetBytes)
attr title "packets received, packetBytes"
vector 229 Scenario.node[13].wlan[0].mac.dcf packetReceivedFromPeerMulticast:vector(packetBytes) ETV
attr interpolationmode none
attr recordingmode vector(packetBytes)
attr source ieee80211Multicast(packetReceivedFromPeer)
attr title "packets received: multicast, packetBytes"
vector 230 Scenario.node[13].wlan[0].mac.dcf packetReceivedFromPeerWithoutRetry:vector(packetBytes) ETV
attr interpolationmode none
attr recordingmode vector(packetBytes)
attr source ieee80211NotRetry(packetReceivedFromPeer)
attr title "packets received: without retry, packetBytes"
vector 231 Scenario.node[13].wlan[0].mac packetSentToUpper:vector(packetBytes) ETV
attr interpolationmode none
attr recordingmode vector(packetBytes)
attr title "packets sent to upper layer, packetBytes"
vector 232 Scenario.node[13].udp packetReceived:vector(packetBytes) ETV
attr interpolationmode none
attr recordingmode vector(packetBytes)
attr source packetReceived
attr title "packets received, packetBytes"
vector 233 Scenario.node[13].app[0] packetReceived:vector(packetBytes) ETV
attr interpolationmode none
attr recordingmode vector(packetBytes)
attr source packetReceived
attr title "packets received, packetBytes"
vector 234 Scenario.node[13].app[0] throughput:vector ETV
attr recordingmode vector
attr source throughput(packetReceived)
attr title throughput
attr unit bps
vector 235 Scenario.node[13].app[0] rcvdPkLifetime:vector ETV
attr interpolationmode none
attr recordingmode vector
attr source dataAge(packetReceived)
attr title "received packet lifetime"
attr unit s
vector 236 Scenario.node[13].app[0] packetSent:vector(packetBytes) ETV
attr interpolationmode none
attr recordingmode vector(packetBytes)
attr source packetSent
attr title "packets sent, packetBytes"
vector 237 Scenario.node[13].udp packetSent:vector(packetBytes) ETV
attr interpolationmode none
attr recordingmode vector(packetBytes)
attr source packetSent
attr title "packets sent, packetBytes"
vector 238 Scenario.node[13].lo[0].lo rcvdPkFromHl:vector(packetBytes) ETV
attr interpolationmode none
attr recordingmode vector(packetBytes)
attr source packetReceivedFromUpper
attr title "packets received from higher layer, packetBytes"
vector 239 Scenario.node[13].lo[0].lo passedUpPk:vector(packetBytes) ETV
attr interpolationmode none
attr recordingmode vector(packetBytes)
attr source packetSentToUpper
attr title "packets passed to higher layer, packetBytes"
vector 240 Scenario.node[13].wlan[0].mac packetReceivedFromUpper:vector(packetBytes) ETV
attr interpolationmode none
attr recordingmode vector(packetBytes)
attr title "packets received from upper layer, packetBytes"
vector 241 Scenario.node[13].wlan[0].mac.dcf.channelAccess.pendingQueue incomingPacketLengths:vector ETV
attr interpolationmode none
attr recordingmode vector
attr source packetLength(packetPushStarted)
attr title "incoming packet lengths"
attr unit b
vector 242 Scenario.node[13].wlan[0].mac.dcf.channelAccess.pendingQueue incomingDataRate:vector ETV
attr interpolationmode linear
attr recordingmode vector
attr source throughput(packetPushStarted)
attr title "incoming datarate"
attr unit bps
vector 243 Scenario.node[13].wlan[0].mac.dcf.channelAccess.pendingQueue queueLength:vector ETV
attr autoWarmupFilter false
attr interpolationmode sample-hold
attr recordingmode vector
attr source "warmup(atomic(constant0(packetPushEnded) + count(packetPushStarted) - count(packetPulled) - count(packetRemoved) - count(packetDropped)))"
attr title "queue length"
attr unit pk
vector 244 Scenario.node[13].wlan[0].mac.dcf.channelAccess.pendingQueue queueBitLength:vector ETV
attr autoWarmupFilter false
attr interpolationmode sample-hold
attr recordingmode vector
attr source "warmup(atomic(constant0(packetPushEnded) + sum(packetLength(packetPushStarted)) - sum(packetLength(packetPulled)) - sum(packetLength(packetRemoved)) - sum(packetLength(packetDropped))))"
attr title "queue bit length"
attr unit b
vector 245 Scenario.node[13].wlan[0].mac.dcf.channelAccess.contention backoffPeriodGenerated:vector ETV
attr interpolationmode none
attr recordingmode vector
attr title "backoff periods"
vector 246 Scenario.node[6].wlan[0].mac.dcf.channelAccess.pendingQueue queueingTime:vector ETV
attr interpolationmode none
attr recordingmode vector
attr source queueingTime(packetPulled)
attr title "queueing times"
attr unit s
vector 247 Scenario.node[6].wlan[0].mac.dcf.channelAccess.pendingQueue outgoingPacketLengths:vector ETV
attr interpolationmode none
attr recordingmode vector
attr source packetLength(packetPulled)
attr title "outgoing packet lengths"
attr unit b
vector 248 Scenario.node[6].wlan[0].mac.dcf.channelAccess.pendingQueue outgoingDataRate:vector ETV
attr interpolationmode linear
attr recordingmode vector
attr source throughput(packetPulled)
attr title "outgoing datarate"
attr unit bps
vector 249 Scenario.node[6].wlan[0].mac.dcf datarateSelected:vector ETV
attr interpolationmode none
attr recordingmode vector
attr title "datarates selected"
vector 250 Scenario.node[6].wlan[0].mac packetSentToLower:vector(packetBytes) ETV
attr interpolationmode none
attr recordingmode vector(packetBytes)
attr title "packets sent to lower layer, packetBytes"
vector 251 Scenario.node[6].wlan[0].radio transmissionState:vector ETV
attr interpolationmode sample-hold
attr recordingmode vector
attr source transmissionStateChanged
attr title "Radio transmission state"
vector 252 Scenario.node[14].wlan[0].mac.dcf.channelAccess.pendingQueue queueingTime:vector ETV
attr interpolationmode none
attr recordingmode vector
attr source queueingTime(packetPulled)
attr title "queueing times"
attr unit s
vector 253 Scenario.node[14].wlan[0].mac.dcf.channelAccess.pendingQueue outgoingPacketLengths:vector ETV
attr interpolationmode none
attr recordingmode vector
attr source packetLength(packetPulled)
attr title "outgoing packet lengths"
attr unit b
vector 254 Scenario.node[14].wlan[0].mac.dcf.channelAccess.pendingQueue outgoingDataRate:vector ETV
attr interpolationmode linear
attr recordingmode vector
attr source throughput(packetPulled)
attr title "outgoing datarate"
attr unit bps
vector 255 Scenario.node[14].wlan[0].mac.dcf datarateSelected:vector ETV
attr interpolationmode none
attr recordingmode vector
attr title "datarates selected"
vector 256 Scenario.node[14].wlan[0].mac packetSentToLower:vector(packetBytes) ETV
attr interpolationmode none
attr recordingmode vector(packetBytes)
attr title "packets sent to lower layer, packetBytes"
vector 257 Scenario.node[14].wlan[0].radio transmissionState:vector ETV
attr interpolationmode sample-hold
attr recordingmode vector
attr source transmissionStateChanged
attr title "Radio transmission state"
vector 258 Scenario.node[6].wlan[0].mac.dcf packetSentToPeer:vector(packetBytes) ETV
attr interpolationmode none
attr recordingmode vector(packetBytes)
attr title "packets sent, packetBytes"
vector 259 Scenario.node[6].wlan[0].mac.dcf packetSentToPeerMulticast:vector(packetBytes) ETV
attr interpolationmode none
attr recordingmode vector(packetBytes)
attr source ieee80211Multicast(packetSentToPeer)
attr title "packets sent: multicast, packetBytes"
vector 260 Scenario.node[6].wlan[0].mac.dcf packetSentToPeerWithoutRetry:vector(packetBytes) ETV
attr interpolationmode none
attr recordingmode vector(packetBytes)
attr source ieee80211NotRetry(packetSentToPeer)
attr title "packets sent: without retry, packetBytes"
vector 261 Scenario.node[6].wlan[0].mac.dcf.channelAccess.inProgressFrames queueingTime:vector ETV
attr interpolationmode none
attr recordingmode vector
attr source queueingTime(packetDequeued)
attr title "queueing times"
vector 262 Scenario.node[5].wlan[0].mac packetReceivedFromLower:vector(packetBytes) ETV
attr interpolationmode none
attr recordingmode vector(packetBytes)
attr title "packets received from lower layer, packetBytes"
vector 263 Scenario.node[5].wlan[0].mac.dcf packetReceivedFromPeer:vector(packetBytes) ETV
attr interpolationmode none
attr recordingmode vector(packetBytes)
attr title "packets received, packetBytes"
vector 264 Scenario.node[5].wlan[0].mac.dcf packetReceivedFromPeerMulticast:vector(packetBytes) ETV
attr interpolationmode none
attr recordingmode vector(packetBytes)
attr source ieee80211Multicast(packetReceivedFromPeer)
attr title "packets received: multicast, packetBytes"
vector 265 Scenario.node[5].wlan[0].mac.dcf packetReceivedFromPeerWithoutRetry:vector(packetBytes) ETV
attr interpolationmode none
attr recordingmode vector(packetBytes)
attr source ieee80211NotRetry(packetReceivedFromPeer)
attr title "packets received: without retry, packetBytes"
vector 266 Scenario.node[5].wlan[0].mac packetSentToUpper:vector(packetBytes) ETV
attr interpolationmode none
attr recordingmode vector(packetBytes)
attr title "packets sent to upper layer, packetBytes"
vector 267 Scenario.node[14].wlan[0].mac.dcf packetSentToPeer:vector(packetBytes) ETV
attr interpolationmode none
attr recordingmode vector(packetBytes)
attr title "packets sent, packetBytes"
vector 268 Scenario.node[14].wlan[0].mac.dcf packetSentToPeerMulticast:vector(packetBytes) ETV
attr interpolationmode none
attr recordingmode vector(packetBytes)
attr source ieee80211Multicast(packetSentToPeer)
attr title "packets sent: multicast, packetBytes"
vector 269 Scenario.node[14].wlan[0].mac.dcf packetSentToPeerWithoutRetry:vector(packetBytes) ETV
attr interpolationmode none
attr recordingmode vector(packetBytes)
attr source ieee80211NotRetry(packetSentToPeer)
attr title "packets sent: without retry, packetBytes"
vector 270 Scenario.node[14].wlan[0].mac.dcf.channelAccess.inProgressFrames queueingTime:vector ETV
attr interpolationmode none
attr recordingmode vector
attr source queueingTime(packetDequeued)
attr title "queueing times"
vector 271 Scenario.node[13].wlan[0].mac packetDrop:vector(packetBytes) ETV
attr interpolationmode none
attr recordingmode vector(packetBytes)
attr source packetDropped
attr title "packet drops, packetBytes"
vector 272 Scenario.node[13].wlan[0].mac packetDropIncorrectlyReceived:vector(packetBytes) ETV
attr interpolationmode none
attr recordingmode vector(packetBytes)
attr source packetDropReasonIsIncorrectlyReceived(packetDropped)
attr title "packet drops: incorrectly received, packetBytes"
vector 273 Scenario.node[10].wlan[0].mac packetReceivedFromLower:vector(packetBytes) ETV
attr interpolationmode none
attr recordingmode vector(packetBytes)
attr title "packets received from lower layer, packetBytes"
vector 274 Scenario.node[10].wlan[0].mac.dcf packetReceivedFromPeer:vector(packetBytes) ETV
attr interpolationmode none
attr recordingmode vector(packetBytes)
attr title "packets received, packetBytes"
vector 275 Scenario.node[10].wlan[0].mac.dcf packetReceivedFromPeerMulticast:vector(packetBytes) ETV
attr interpolationmode none
attr recordingmode vector(packetBytes)
attr source ieee80211Multicast(packetReceivedFromPeer)
attr title "packets received: multicast, packetBytes"
vector 276 Scenario.node[10].wlan[0].mac.dcf packetReceivedFromPeerWithoutRetry:vector(packetBytes) ETV
attr interpolationmode none
attr recordingmode vector(packetBytes)
attr source ieee80211NotRetry(packetReceivedFromPeer)
attr title "packets received: without retry, packetBytes"
vector 277 Scenario.node[10].wlan[0].mac packetSentToUpper:vector(packetBytes) ETV
attr interpolationmode none
attr recordingmode vector(packetBytes)
attr title "packets sent to upper layer, packetBytes"
vector 278 Scenario.node[10].udp packetReceived:vector(packetBytes) ETV
attr interpolationmode none
attr recordingmode vector(packetBytes)
attr source packetReceived
attr title "packets received, packetBytes"
vector 279 Scenario.node[10].app[0] packetReceived:vector(packetBytes) ETV
attr interpolationmode none
attr recordingmode vector(packetBytes)
attr source packetReceived
attr title "packets received, packetBytes"
vector 280 Scenario.node[10].app[0] throughput:vector ETV
attr recordingmode vector
attr source throughput(packetReceived)
attr title throughput
attr unit bps
vector 281 Scenario.node[10].app[0] rcvdPkLifetime:vector ETV
attr interpolationmode none
attr recordingmode vector
attr source dataAge(packetReceived)
attr title "received packet lifetime"
attr unit s
vector 282 Scenario.node[10].app[0] packetSent:vector(packetBytes) ETV
attr interpolationmode none
attr recordingmode vector(packetBytes)
attr source packetSent
attr title "packets sent, packetBytes"
vector 283 Scenario.node[10].udp packetSent:vector(packetBytes) ETV
attr interpolationmode none
attr recordingmode vector(packetBytes)
attr source packetSent
attr title "packets sent, packetBytes"
vector 284 Scenario.node[10].lo[0].lo rcvdPkFromHl:vector(packetBytes) ETV
attr interpolationmode none
attr recordingmode vector(packetBytes)
attr source packetReceivedFromUpper
attr title "packets received from higher layer, packetBytes"
vector 285 Scenario.node[10].lo[0].lo passedUpPk:vector(packetBytes) ETV
attr interpolationmode none
attr recordingmode vector(packetBytes)
attr source packetSentToUpper
attr title "packets passed to higher layer, packetBytes"
vector 286 Scenario.node[10].wlan[0].mac packetReceivedFromUpper:vector(packetBytes) ETV
attr interpolationmode none
attr recordingmode vector(packetBytes)
attr title "packets received from upper layer, packetBytes"
vector 287 Scenario.node[10].wlan[0].mac.dcf.channelAccess.pendingQueue incomingPacketLengths:vector ETV
attr interpolationmode none
attr recordingmode vector
attr source packetLength(packetPushStarted)
attr title "incoming packet lengths"
attr unit b
vector 288 Scenario.node[10].wlan[0].mac.dcf.channelAccess.pendingQueue incomingDataRate:vector ETV
attr interpolationmode linear
attr recordingmode vector
attr source throughput(packetPushStarted)
attr title "incoming datarate"
attr unit bps
vector 289 Scenario.node[10].wlan[0].mac.dcf.channelAccess.pendingQueue queueLength:vector ETV
attr autoWarmupFilter false
attr interpolationmode sample-hold
attr recordingmode vector
attr source "warmup(atomic(constant0(packetPushEnded) + count(packetPushStarted) - count(packetPulled) - count(packetRemoved) - count(packetDropped)))"
attr title "queue length"
attr unit pk
vector 290 Scenario.node[10].wlan[0].mac.dcf.channelAccess.pendingQueue queueBitLength:vector ETV
attr autoWarmupFilter false
attr interpolationmode sample-hold
attr recordingmode vector
attr source "warmup(atomic(constant0(packetPushEnded) + sum(packetLength(packetPushStarted)) - sum(packetLength(packetPulled)) - sum(packetLength(packetRemoved)) - sum(packetLength(packetDropped))))"
attr title "queue bit length"
attr unit b
vector 291 Scenario.node[10].wlan[0].mac.dcf.channelAccess.contention backoffPeriodGenerated:vector ETV
attr interpolationmode none
attr recordingmode vector
attr title "backoff periods"
vector 292 Scenario.node[12].wlan[0].mac packetReceivedFromLower:vector(packetBytes) ETV
attr interpolationmode none
attr recordingmode vector(packetBytes)
attr title "packets received from lower layer, packetBytes"
vector 293 Scenario.node[12].wlan[0].mac.dcf packetReceivedFromPeer:vector(packetBytes) ETV
attr interpolationmode none
attr recordingmode vector(packetBytes)
attr title "packets received, packetBytes"
vector 294 Scenario.node[12].wlan[0].mac.dcf packetReceivedFromPeerMulticast:vector(packetBytes) ETV
attr interpolationmode none
attr recordingmode vector(packetBytes)
attr source ieee80211Multicast(packetReceivedFromPeer)
attr title "packets received: multicast, packetBytes"
vector 295 Scenario.node[12].wlan[0].mac.dcf packetReceivedFromPeerWithoutRetry:vector(packetBytes) ETV
attr interpolationmode none
attr recordingmode vector(packetBytes)
attr source ieee80211NotRetry(packetReceivedFromPeer)
attr title "packets received: without retry, packetBytes"
vector 296 Scenario.node[12].wlan[0].mac packetSentToUpper:vector(packetBytes) ETV
attr interpolationmode none
attr recordingmode vector(packetBytes)
attr title "packets sent to upper layer, packetBytes"
vector 297 Scenario.node[12].udp packetReceived:vector(packetBytes) ETV
attr interpolationmode none
attr recordingmode vector(packetBytes)
attr source packetReceived
attr title "packets received, packetBytes"
vector 298 Scenario.node[12].app[0] packetReceived:vector(packetBytes) ETV
attr interpolationmode none
attr recordingmode vector(packetBytes)
attr source packetReceived
attr title "packets received, packetBytes"
vector 299 Scenario.node[12].app[0] throughput:vector ETV
attr recordingmode vector
attr source throughput(packetReceived)
attr title throughput
attr unit bps
vector 300 Scenario.node[12].app[0] rcvdPkLifetime:vector ETV
attr interpolationmode none
attr recordingmode vector
attr source dataAge(packetReceived)
attr title "received packet lifetime"
attr unit s
vector 301 Scenario.node[12].app[0] packetSent:vector(packetBytes) ETV
attr interpolationmode none
attr recordingmode vector(packetBytes)
attr source packetSent
attr title "packets sent, packetBytes"
vector 302 Scenario.node[12].udp packetSent:vector(packetBytes) ETV
attr interpolationmode none
attr recordingmode vector(packetBytes)
attr source packetSent
attr title "packets sent, packetBytes"
vector 303 Scenario.node[12].lo[0].lo rcvdPkFromHl:vector(packetBytes) ETV
attr interpolationmode none
attr recordingmode vector(packetBytes)
attr source packetReceivedFromUpper
attr title "packets received from higher layer, packetBytes"
vector 304 Scenario.node[12].lo[0].lo passedUpPk:vector(packetBytes) ETV
attr interpolationmode none
attr recordingmode vector(packetBytes)
attr source packetSentToUpper
attr title "packets passed to higher layer, packetBytes"
vector 305 Scenario.node[12].wlan[0].mac packetReceivedFromUpper:vector(packetBytes) ETV
[...]
4482	7043955 57 36301 36301 230.1 230.1 3 0 2 2 4
4483	7044012 19 36301 36301 230.1 230.1 1 3 3 3 9
4484	7044031 19 36301 36301 230.1 230.1 1 1 1 1 1
4485	7044050 38 36301 36301 230.1 230.1 2 0 0 0 0
4486	7044088 20 36301 36301 230.1 230.1 1 15 15 15 225
4509	7044108 38 36452 36452 232.7 232.7 2 0 0 0 0
4510	7044146 38 36452 36452 232.7 232.7 2 0 0 0 0
4511	7044184 38 36452 36452 232.7 232.7 2 0 0 0 0
4512	7044222 19 36452 36452 232.7 232.7 1 0 0 0 0
4513	7044241 19 36452 36452 232.7 232.7 1 0 0 0 0
4514	7044260 19 36452 36452 232.7 232.7 1 0 0 0 0
4515	7044279 57 36452 36452 232.7 232.7 3 0 2 2 4
4516	7044336 19 36452 36452 232.7 232.7 1 3 3 3 9
4517	7044355 19 36452 36452 232.7 232.7 1 1 1 1 1
4518	7044374 38 36452 36452 232.7 232.7 2 0 0 0 0
4519	7044412 20 36452 36452 232.7 232.7 1 15 15 15 225
4542	7044432 38 36882 36882 240.1 240.1 2 0 0 0 0
4543	7044470 38 36882 36882 240.1 240.1 2 0 0 0 0
4544	7044508 38 36882 36882 240.1 240.1 2 0 0 0 0
4545	7044546 19 36882 36882 240.1 240.1 1 0 0 0 0
4546	7044565 19 36882 36882 240.1 240.1 1 0 0 0 0
4547	7044584 19 36882 36882 240.1 240.1 1 0 0 0 0
4548	7044603 57 36882 36882 240.1 240.1 3 0 2 2 4
4549	7044660 19 36882 36882 240.1 240.1 1 3 3 3 9
4550	7044679 19 36882 36882 240.1 240.1 1 1 1 1 1
4551	7044698 38 36882 36882 240.1 240.1 2 0 0 0 0
4552	7044736 20 36882 36882 240.1 240.1 1 15 15 15 225
4564	7044756 38 36899 36899 240.2 240.2 2 0 0 0 0
4565	7044794 38 36899 36899 240.2 240.2 2 0 0 0 0
4566	7044832 38 36899 36899 240.2 240.2 2 0 0 0 0
4567	7044870 19 36899 36899 240.2 240.2 1 0 0 0 0
4568	7044889 19 36899 36899 240.2 240.2 1 0 0 0 0
4569	7044908 19 36899 36899 240.2 240.2 1 0 0 0 0
4570	7044927 57 36899 36899 240.2 240.2 3 0 2 2 4
4571	7044984 19 36899 36899 240.2 240.2 1 3 3 3 9
4572	7045003 19 36899 36899 240.2 240.2 1 1 1 1 1
4573	7045022 38 36899 36899 240.2 240.2 2 0 0 0 0
4574	7045060 20 36899 36899 240.2 240.2 1 15 15 15 225
4586	7045080 38 37391 37391 250.1 250.1 2 0 0 0 0
4587	7045118 38 37391 37391 250.1 250.1 2 0 0 0 0
4588	7045156 38 37391 37391 250.1 250.1 2 0 0 0 0
4589	7045194 19 37391 37391 250.1 250.1 1 0 0 0 0
4590	7045213 19 37391 37391 250.1 250.1 1 0 0 0 0
4591	7045232 19 37391 37391 250.1 250.1 1 0 0 0 0
4592	7045251 57 37391 37391 250.1 250.1 3 0 2 2 4
4593	7045308 19 37391 37391 250.1 250.1 1 3 3 3 9
4594	7045327 19 37391 37391 250.1 250.1 1 1 1 1 1
4595	7045346 38 37391 37391 250.1 250.1 2 0 0 0 0
4596	7045384 20 37391 37391 250.1 250.1 1 15 15 15 225
4597	7045404 38 37391 37391 250.1 250.1 2 0 0 0 0
4598	7045442 38 37391 37391 250.1 250.1 2 0 0 0 0
4599	7045480 38 37391 37391 250.1 250.1 2 0 0 0 0
4600	7045518 19 37391 37391 250.1 250.1 1 0 0 0 0
4601	7045537 19 37391 37391 250.1 250.1 1 0 0 0 0
4602	7045556 19 37391 37391 250.1 250.1 1 0 0 0 0
4603	7045575 57 37391 37391 250.1 250.1 3 0 2 2 4
4604	7045632 19 37391 37391 250.1 250.1 1 3 3 3 9
4605	7045651 19 37391 37391 250.1 250.1 1 1 1 1 1
4606	7045670 38 37391 37391 250.1 250.1 2 0 0 0 0
4607	7045708 20 37391 37391 250.1 250.1 1 15 15 15 225
4608	7045728 38 37391 37391 250.1 250.1 2 0 0 0 0
4609	7045766 38 37391 37391 250.1 250.1 2 0 0 0 0
4610	7045804 38 37391 37391 250.1 250.1 2 0 0 0 0
4611	7045842 19 37391 37391 250.1 250.1 1 0 0 0 0
4612	7045861 19 37391 37391 250.1 250.1 1 0 0 0 0
4613	7045880 19 37391 37391 250.1 250.1 1 0 0 0 0
4614	7045899 57 37391 37391 250.1 250.1 3 0 2 2 4
4615	7045956 19 37391 37391 250.1 250.1 1 3 3 3 9
4616	7045975 19 37391 37391 250.1 250.1 1 1 1 1 1
4617	7045994 38 37391 37391 250.1 250.1 2 0 0 0 0
4618	7046032 20 37391 37391 250.1 250.1 1 15 15 15 225
4619	7046052 38 37526 37526 252.7 252.7 2 0 0 0 0
4620	7046090 38 37526 37526 252.7 252.7 2 0 0 0 0
4621	7046128 38 37526 37526 252.7 252.7 2 0 0 0 0
4622	7046166 19 37526 37526 252.7 252.7 1 0 0 0 0
4623	7046185 19 37526 37526 252.7 252.7 1 0 0 0 0
4624	7046204 19 37526 37526 252.7 252.7 1 0 0 0 0
4625	7046223 57 37526 37526 252.7 252.7 3 0 2 2 4
4626	7046280 19 37526 37526 252.7 252.7 1 3 3 3 9
4627	7046299 19 37526 37526 252.7 252.7 1 1 1 1 1
4628	7046318 38 37526 37526 252.7 252.7 2 0 0 0 0
4629	7046356 20 37526 37526 252.7 252.7 1 15 15 15 225
4658	7046376 38 37897 37897 260.1 260.1 2 0 0 0 0
4659	7046414 38 37897 37897 260.1 260.1 2 0 0 0 0
4660	7046452 38 37897 37897 260.1 260.1 2 0 0 0 0
4661	7046490 19 37897 37897 260.1 260.1 1 0 0 0 0
4662	7046509 19 37897 37897 260.1 260.1 1 0 0 0 0
4663	7046528 19 37897 37897 260.1 260.1 1 0 0 0 0
4664	7046547 57 37897 37897 260.1 260.1 3 0 2 2 4
4665	7046604 19 37897 37897 260.1 260.1 1 3 3 3 9
4666	7046623 19 37897 37897 260.1 260.1 1 1 1 1 1
4667	7046642 38 37897 37897 260.1 260.1 2 0 0 0 0
4668	7046680 20 37897 37897 260.1 260.1 1 15 15 15 225
4669	7046700 38 37913 37913 260.2 260.2 2 0 0 0 0
4670	7046738 38 37913 37913 260.2 260.2 2 0 0 0 0
4671	7046776 38 37913 37913 260.2 260.2 2 0 0 0 0
4672	7046814 19 37913 37913 260.2 260.2 1 0 0 0 0
4673	7046833 19 37913 37913 260.2 260.2 1 0 0 0 0
4674	7046852 19 37913 37913 260.2 260.2 1 0 0 0 0
4675	7046871 57 37913 37913 260.2 260.2 3 0 2 2 4
4676	7046928 19 37913 37913 260.2 260.2 1 3 3 3 9
4677	7046947 19 37913 37913 260.2 260.2 1 1 1 1 1
4678	7046966 38 37913 37913 260.2 260.2 2 0 0 0 0
4679	7047004 20 37913 37913 260.2 260.2 1 15 15 15 225
4680	7047024 38 37913 37913 260.2 260.2 2 0 0 0 0
4681	7047062 38 37913 37913 260.2 260.2 2 0 0 0 0
4682	7047100 38 37913 37913 260.2 260.2 2 0 0 0 0
4683	7047138 19 37913 37913 260.2 260.2 1 0 0 0 0
4684	7047157 19 37913 37913 260.2 260.2 1 0 0 0 0
4685	7047176 19 37913 37913 260.2 260.2 1 0 0 0 0
4686	7047195 57 37913 37913 260.2 260.2 3 0 2 2 4
4687	7047252 19 37913 37913 260.2 260.2 1 3 3 3 9
4688	7047271 19 37913 37913 260.2 260.2 1 1 1 1 1
4689	7047290 38 37913 37913 260.2 260.2 2 0 0 0 0
4690	7047328 20 37913 37913 260.2 260.2 1 15 15 15 225
4691	7047348 38 38391 38391 270.1 270.1 2 0 0 0 0
4692	7047386 38 38391 38391 270.1 270.1 2 0 0 0 0
4693	7047424 38 38391 38391 270.1 270.1 2 0 0 0 0
4694	7047462 19 38391 38391 270.1 270.1 1 0 0 0 0
4695	7047481 19 38391 38391 270.1 270.1 1 0 0 0 0
4696	7047500 19 38391 38391 270.1 270.1 1 0 0 0 0
4697	7047519 57 38391 38391 270.1 270.1 3 0 2 2 4
4698	7047576 19 38391 38391 270.1 270.1 1 3 3 3 9
4699	7047595 19 38391 38391 270.1 270.1 1 1 1 1 1
4700	7047614 38 38391 38391 270.1 270.1 2 0 0 0 0
4701	7047652 20 38391 38391 270.1 270.1 1 15 15 15 225
4702	7047672 38 38391 38391 270.1 270.1 2 0 0 0 0
4703	7047710 38 38391 38391 270.1 270.1 2 0 0 0 0
4704	7047748 38 38391 38391 270.1 270.1 2 0 0 0 0
4705	7047786 19 38391 38391 270.1 270.1 1 0 0 0 0
4706	7047805 19 38391 38391 270.1 270.1 1 0 0 0 0
4707	7047824 19 38391 38391 270.1 270.1 1 0 0 0 0
4708	7047843 57 38391 38391 270.1 270.1 3 0 2 2 4
4709	7047900 19 38391 38391 270.1 270.1 1 3 3 3 9
4710	7047919 19 38391 38391 270.1 270.1 1 1 1 1 1
4711	7047938 38 38391 38391 270.1 270.1 2 0 0 0 0
4712	7047976 20 38391 38391 270.1 270.1 1 15 15 15 225
4713	7047996 38 38391 38391 270.1 270.1 2 0 0 0 0
4714	7048034 38 38391 38391 270.1 270.1 2 0 0 0 0
4715	7048072 38 38391 38391 270.1 270.1 2 0 0 0 0
4716	7048110 19 38391 38391 270.1 270.1 1 0 0 0 0
4717	7048129 19 38391 38391 270.1 270.1 1 0 0 0 0
4718	7048148 19 38391 38391 270.1 270.1 1 0 0 0 0
4719	7048167 57 38391 38391 270.1 270.1 3 0 2 2 4
4720	7048224 19 38391 38391 270.1 270.1 1 3 3 3 9
4721	7048243 19 38391 38391 270.1 270.1 1 1 1 1 1
4722	7048262 38 38391 38391 270.1 270.1 2 0 0 0 0
4723	7048300 20 38391 38391 270.1 270.1 1 15 15 15 225
4724	7048320 38 38391 38391 270.1 270.1 2 0 0 0 0
4725	7048358 38 38391 38391 270.1 270.1 2 0 0 0 0
4726	7048396 38 38391 38391 270.1 270.1 2 0 0 0 0
4727	7048434 19 38391 38391 270.1 270.1 1 0 0 0 0
4728	7048453 19 38391 38391 270.1 270.1 1 0 0 0 0
4729	7048472 19 38391 38391 270.1 270.1 1 0 0 0 0
4730	7048491 57 38391 38391 270.1 270.1 3 0 2 2 4
4731	7048548 19 38391 38391 270.1 270.1 1 3 3 3 9
4732	7048567 19 38391 38391 270.1 270.1 1 1 1 1 1
4733	7048586 38 38391 38391 270.1 270.1 2 0 0 0 0
4734	7048624 20 38391 38391 270.1 270.1 1 15 15 15 225
4735	7048644 38 38529 38529 272.8 272.8 2 0 0 0 0
4736	7048682 38 38529 38529 272.8 272.8 2 0 0 0 0
4737	7048720 38 38529 38529 272.8 272.8 2 0 0 0 0
4738	7048758 19 38529 38529 272.8 272.8 1 0 0 0 0
4739	7048777 19 38529 38529 272.8 272.8 1 0 0 0 0
4740	7048796 19 38529 38529 272.8 272.8 1 0 0 0 0
4741	7048815 57 38529 38529 272.8 272.8 3 0 2 2 4
4742	7048872 19 38529 38529 272.8 272.8 1 3 3 3 9
4743	7048891 19 38529 38529 272.8 272.8 1 1 1 1 1
4744	7048910 38 38529 38529 272.8 272.8 2 0 0 0 0
4745	7048948 20 38529 38529 272.8 272.8 1 15 15 15 225
4746	7048968 38 38529 38529 272.8 272.8 2 0 0 0 0
4747	7049006 38 38529 38529 272.8 272.8 2 0 0 0 0
4748	7049044 38 38529 38529 272.8 272.8 2 0 0 0 0
4749	7049082 19 38529 38529 272.8 272.8 1 0 0 0 0
4750	7049101 19 38529 38529 272.8 272.8 1 0 0 0 0
4751	7049120 19 38529 38529 272.8 272.8 1 0 0 0 0
4752	7049139 57 38529 38529 272.8 272.8 3 0 2 2 4
4753	7049196 19 38529 38529 272.8 272.8 1 3 3 3 9
4754	7049215 19 38529 38529 272.8 272.8 1 1 1 1 1
4755	7049234 38 38529 38529 272.8 272.8 2 0 0 0 0
4756	7049272 20 38529 38529 272.8 272.8 1 15 15 15 225
4763	7049292 38 38927 38927 280.1 280.1 2 0 0 0 0
4764	7049330 38 38927 38927 280.1 280.1 2 0 0 0 0
4765	7049368 38 38927 38927 280.1 280.1 2 0 0 0 0
4766	7049406 19 38927 38927 280.1 280.1 1 0 0 0 0
4767	7049425 19 38927 38927 280.1 280.1 1 0 0 0 0
4768	7049444 19 38927 38927 280.1 280.1 1 0 0 0 0
4769	7049463 57 38927 38927 280.1 280.1 3 0 2 2 4
4770	7049520 19 38927 38927 280.1 280.1 1 3 3 3 9
4771	7049539 19 38927 38927 280.1 280.1 1 1 1 1 1
4772	7049558 38 38927 38927 280.1 280.1 2 0 0 0 0
4773	7049596 20 38927 38927 280.1 280.1 1 15 15 15 225
4774	7049616 38 38927 38927 280.1 280.1 2 0 0 0 0
4775	7049654 38 38927 38927 280.1 280.1 2 0 0 0 0
4776	7049692 38 38927 38927 280.1 280.1 2 0 0 0 0
4777	7049730 19 38927 38927 280.1 280.1 1 0 0 0 0
4778	7049749 19 38927 38927 280.1 280.1 1 0 0 0 0
4779	7049768 19 38927 38927 280.1 280.1 1 0 0 0 0
4780	7049787 57 38927 38927 280.1 280.1 3 0 2 2 4
4781	7049844 19 38927 38927 280.1 280.1 1 3 3 3 9
4782	7049863 19 38927 38927 280.1 280.1 1 1 1 1 1
4783	7049882 38 38927 38927 280.1 280.1 2 0 0 0 0
4784	7049920 20 38927 38927 280.1 280.1 1 15 15 15 225
4785	7049940 38 38943 38943 280.2 280.2 2 0 0 0 0
4786	7049978 38 38943 38943 280.2 280.2 2 0 0 0 0
4787	7050016 38 38943 38943 280.2 280.2 2 0 0 0 0
4788	7050054 19 38943 38943 280.2 280.2 1 0 0 0 0
4789	7050073 19 38943 38943 280.2 280.2 1 0 0 0 0
4790	7050092 19 38943 38943 280.2 280.2 1 0 0 0 0
4791	7050111 57 38943 38943 280.2 280.2 3 0 2 2 4
4792	7050168 19 38943 38943 280.2 280.2 1 3 3 3 9
4793	7050187 19 38943 38943 280.2 280.2 1 1 1 1 1
4794	7050206 38 38943 38943 280.2 280.2 2 0 0 0 0
4795	7050244 20 38943 38943 280.2 280.2 1 15 15 15 225
4796	7050264 38 38943 38943 280.2 280.2 2 0 0 0 0
4797	7050302 38 38943 38943 280.2 280.2 2 0 0 0 0
4798	7050340 38 38943 38943 280.2 280.2 2 0 0 0 0
4799	7050378 19 38943 38943 280.2 280.2 1 0 0 0 0
4800	7050397 19 38943 38943 280.2 280.2 1 0 0 0 0
4801	7050416 19 38943 38943 280.2 280.2 1 0 0 0 0
4802	7050435 57 38943 38943 280.2 280.2 3 0 2 2 4
4803	7050492 19 38943 38943 280.2 280.2 1 3 3 3 9
4804	7050511 19 38943 38943 280.2 280.2 1 1 1 1 1
4805	7050530 38 38943 38943 280.2 280.2 2 0 0 0 0
4806	7050568 20 38943 38943 280.2 280.2 1 15 15 15 225
4810	7050588 38 39476 39476 290.1 290.1 2 0 0 0 0
4811	7050626 38 39476 39476 290.1 290.1 2 0 0 0 0
4812	7050664 38 39476 39476 290.1 290.1 2 0 0 0 0
4813	7050702 19 39476 39476 290.1 290.1 1 0 0 0 0
4814	7050721 19 39476 39476 290.1 290.1 1 0 0 0 0
4815	7050740 19 39476 39476 290.1 290.1 1 0 0 0 0
4816	7050759 57 39476 39476 290.1 290.1 3 0 2 2 4
4817	7050816 19 39476 39476 290.1 290.1 1 3 3 3 9
4818	7050835 19 39476 39476 290.1 290.1 1 1 1 1 1
4819	7050854 38 39476 39476 290.1 290.1 2 0 0 0 0
4820	7050892 20 39476 39476 290.1 290.1 1 15 15 15 225
4821	7050912 38 39476 39476 290.1 290.1 2 0 0 0 0
4822	7050950 38 39476 39476 290.1 290.1 2 0 0 0 0
4823	7050988 38 39476 39476 290.1 290.1 2 0 0 0 0
4824	7051026 19 39476 39476 290.1 290.1 1 0 0 0 0
4825	7051045 19 39476 39476 290.1 290.1 1 0 0 0 0
4826	7051064 19 39476 39476 290.1 290.1 1 0 0 0 0
4827	7051083 57 39476 39476 290.1 290.1 3 0 2 2 4
4828	7051140 19 39476 39476 290.1 290.1 1 3 3 3 9
4829	7051159 19 39476 39476 290.1 290.1 1 1 1 1 1
4830	7051178 38 39476 39476 290.1 290.1 2 0 0 0 0
4831	7051216 20 39476 39476 290.1 290.1 1 15 15 15 225
4832	7051236 38 39476 39476 290.1 290.1 2 0 0 0 0
4833	7051274 38 39476 39476 290.1 290.1 2 0 0 0 0
4834	7051312 38 39476 39476 290.1 290.1 2 0 0 0 0
4835	7051350 19 39476 39476 290.1 290.1 1 0 0 0 0
4836	7051369 19 39476 39476 290.1 290.1 1 0 0 0 0
4837	7051388 19 39476 39476 290.1 290.1 1 0 0 0 0
4838	7051407 57 39476 39476 290.1 290.1 3 0 2 2 4
4839	7051464 19 39476 39476 290.1 290.1 1 3 3 3 9
4840	7051483 19 39476 39476 290.1 290.1 1 1 1 1 1
4841	7051502 38 39476 39476 290.1 290.1 2 0 0 0 0
4842	7051540 20 39476 39476 290.1 290.1 1 15 15 15 225
4843	7051560 38 39476 39476 290.1 290.1 2 0 0 0 0
4844	7051598 38 39476 39476 290.1 290.1 2 0 0 0 0
4845	7051636 38 39476 39476 290.1 290.1 2 0 0 0 0
4846	7051674 19 39476 39476 290.1 290.1 1 0 0 0 0
4847	7051693 19 39476 39476 290.1 290.1 1 0 0 0 0
4848	7051712 19 39476 39476 290.1 290.1 1 0 0 0 0
4849	7051731 57 39476 39476 290.1 290.1 3 0 2 2 4
4850	7051788 19 39476 39476 290.1 290.1 1 3 3 3 9
4851	7051807 19 39476 39476 290.1 290.1 1 1 1 1 1
4852	7051826 38 39476 39476 290.1 290.1 2 0 0 0 0
4853	7051864 20 39476 39476 290.1 290.1 1 15 15 15 225
4860	7051884 38 39616 39616 292.7 292.7 2 0 0 0 0
4861	7051922 38 39616 39616 292.7 292.7 2 0 0 0 0
4862	7051960 38 39616 39616 292.7 292.7 2 0 0 0 0
4863	7051998 19 39616 39616 292.7 292.7 1 0 0 0 0
4864	7052017 19 39616 39616 292.7 292.7 1 0 0 0 0
4865	7052036 19 39616 39616 292.7 292.7 1 0 0 0 0
4866	7052055 57 39616 39616 292.7 292.7 3 0 2 2 4
4867	7052112 19 39616 39616 292.7 292.7 1 3 3 3 9
4868	7052131 19 39616 39616 292.7 292.7 1 1 1 1 1
4869	7052150 38 39616 39616 292.7 292.7 2 0 0 0 0
4870	7052188 20 39616 39616 292.7 292.7 1 15 15 15 225
4871	7052208 38 39616 39616 292.7 292.7 2 0 0 0 0
4872	7052246 38 39616 39616 292.7 292.7 2 0 0 0 0
4873	7052284 38 39616 39616 292.7 292.7 2 0 0 0 0
4874	7052322 19 39616 39616 292.7 292.7 1 0 0 0 0
4875	7052341 19 39616 39616 292.7 292.7 1 0 0 0 0
4876	7052360 19 39616 39616 292.7 292.7 1 0 0 0 0
4877	7052379 57 39616 39616 292.7 292.7 3 0 2 2 4
4878	7052436 19 39616 39616 292.7 292.7 1 3 3 3 9
4879	7052455 19 39616 39616 292.7 292.7 1 1 1 1 1
4880	7052474 38 39616 39616 292.7 292.7 2 0 0 0 0
4881	7052512 20 39616 39616 292.7 292.7 1 15 15 15 225
4900	7052532 55285 39973 39973 0.2 300 2999 0 0 0 0
4901	7107817 55285 39973 39973 0.2 300 2999 0 0 0 0
4902	7163102 55285 39973 39973 0.2 300 2999 0 0 0 0
4903	7218387 55268 39973 39973 0.3 300 2998 0 0 0 0
4904	7273655 55268 39973 39973 0.3 300 2998 0 0 0 0
4905	7328923 55268 39973 39973 0.3 300 2998 0 0 0 0
4906	7384191 55268 39973 39973 0.3 300 2998 0 0 0 0
4907	7439459 55268 39973 39973 0.3 300 2998 0 0 0 0
4908	7494727 55268 39973 39973 0.3 300 2998 0 0 0 0
4909	7549995 55268 39973 39973 0.3 300 2998 0 0 0 0
4910	7605263 55268 39973 39973 0.3 300 2998 0 0 0 0
4911	7660531 55268 39973 39973 0.3 300 2998 0 0 0 0
4912	7715799 55268 39973 39973 0.3 300 2998 0 0 0 0
4913	7771067 55268 39973 39973 0.3 300 2998 0 0 0 0
4914	7826335 55268 39973 39973 0.3 300 2998 0 0 0 0
4915	7881603 15021 39973 39973 220.2 300 799 0 0 0 0
4916	7896624 15021 39973 39973 220.2 300 799 0 0 0 0
4917	7911645 15021 39973 39973 220.2 300 799 0 0 0 0
4918	7926666 15002 39973 39973 220.3 300 798 0 0 0 0
4919	7941668 15002 39973 39973 220.3 300 798 0 0 0 0
4920	7956670 15002 39973 39973 220.3 300 798 0 0 0 0
4921	7971672 13141 39973 39973 230.2 300 699 0 0 0 0
4922	7984813 13141 39973 39973 230.2 300 699 0 0 0 0
4923	7997954 13141 39973 39973 230.2 300 699 0 0 0 0
4924	8011095 12651 39973 39973 232.8 300 673 0 0 0 0
4925	8023746 12651 39973 39973 232.8 300 673 0 0 0 0
4926	8036397 12651 39973 39973 232.8 300 673 0 0 0 0
4927	8049048 11261 39973 39973 240.2 300 599 0 0 0 0
4928	8060309 11261 39973 39973 240.2 300 599 0 0 0 0
4929	8071570 11261 39973 39973 240.2 300 599 0 0 0 0
4930	8082831 11242 39973 39973 240.3 300 598 0 0 0 0
4931	8094073 11242 39973 39973 240.3 300 598 0 0 0 0
4932	8105315 11242 39973 39973 240.3 300 598 0 0 0 0
4933	8116557 9381 39973 39973 250.2 300 499 0 0 0 0
4934	8125938 9381 39973 39973 250.2 300 499 0 0 0 0
4935	8135319 9381 39973 39973 250.2 300 499 0 0 0 0
4936	8144700 9381 39973 39973 250.2 300 499 0 0 0 0
4937	8154081 9381 39973 39973 250.2 300 499 0 0 0 0
4938	8163462 9381 39973 39973 250.2 300 499 0 0 0 0
4939	8172843 9381 39973 39973 250.2 300 499 0 0 0 0
4940	8182224 9381 39973 39973 250.2 300 499 0 0 0 0
4941	8191605 9381 39973 39973 250.2 300 499 0 0 0 0
4942	8200986 8891 39973 39973 252.8 300 473 0 0 0 0
4943	8209877 8891 39973 39973 252.8 300 473 0 0 0 0
4944	8218768 8891 39973 39973 252.8 300 473 0 0 0 0
4945	8227659 7501 39973 39973 260.2 300 399 0 0 0 0
4946	8235160 7501 39973 39973 260.2 300 399 0 0 0 0
4947	8242661 7501 39973 39973 260.2 300 399 0 0 0 0
4948	8250162 7482 39973 39973 260.3 300 398 0 0 0 0
4949	8257644 7482 39973 39973 260.3 300 398 0 0 0 0
4950	8265126 7482 39973 39973 260.3 300 398 0 0 0 0
4951	8272608 7482 39973 39973 260.3 300 398 0 0 0 0
4952	8280090 7482 39973 39973 260.3 300 398 0 0 0 0
4953	8287572 7482 39973 39973 260.3 300 398 0 0 0 0
4954	8295054 5621 39973 39973 270.2 300 299 0 0 0 0
4955	8300675 5621 39973 39973 270.2 300 299 0 0 0 0
4956	8306296 5621 39973 39973 270.2 300 299 0 0 0 0
4957	8311917 5621 39973 39973 270.2 300 299 0 0 0 0
4958	8317538 5621 39973 39973 270.2 300 299 0 0 0 0
4959	8323159 5621 39973 39973 270.2 300 299 0 0 0 0
4960	8328780 5621 39973 39973 270.2 300 299 0 0 0 0
4961	8334401 5621 39973 39973 270.2 300 299 0 0 0 0
4962	8340022 5621 39973 39973 270.2 300 299 0 0 0 0
4963	8345643 5621 39973 39973 270.2 300 299 0 0 0 0
4964	8351264 5621 39973 39973 270.2 300 299 0 0 0 0
4965	8356885 5621 39973 39973 270.2 300 299 0 0 0 0
4966	8362506 5112 39973 39973 272.9 300 272 0 0 0 0
4967	8367618 5112 39973 39973 272.9 300 272 0 0 0 0
4968	8372730 5112 39973 39973 272.9 300 272 0 0 0 0
4969	8377842 5112 39973 39973 272.9 300 272 0 0 0 0
4970	8382954 5112 39973 39973 272.9 300 272 0 0 0 0
4971	8388066 5112 39973 39973 272.9 300 272 0 0 0 0
4972	8393178 3741 39973 39973 280.2 300 199 0 0 0 0
4973	8396919 3741 39973 39973 280.2 300 199 0 0 0 0
4974	8400660 3741 39973 39973 280.2 300 199 0 0 0 0
4975	8404401 3741 39973 39973 280.2 300 199 0 0 0 0
4976	8408142 3741 39973 39973 280.2 300 199 0 0 0 0
4977	8411883 3741 39973 39973 280.2 300 199 0 0 0 0
4978	8415624 3722 39973 39973 280.3 300 198 0 0 0 0
4979	8419346 3722 39973 39973 280.3 300 198 0 0 0 0
4980	8423068 3722 39973 39973 280.3 300 198 0 0 0 0
4981	8426790 3722 39973 39973 280.3 300 198 0 0 0 0
4982	8430512 3722 39973 39973 280.3 300 198 0 0 0 0
4983	8434234 3722 39973 39973 280.3 300 198 0 0 0 0
4984	8437956 1861 39973 39973 290.2 300 99 0 0 0 0
4985	8439817 1861 39973 39973 290.2 300 99 0 0 0 0
4986	8441678 1861 39973 39973 290.2 300 99 0 0 0 0
4987	8443539 1861 39973 39973 290.2 300 99 0 0 0 0
4988	8445400 1861 39973 39973 290.2 300 99 0 0 0 0
4989	8447261 1861 39973 39973 290.2 300 99 0 0 0 0
4990	8449122 1861 39973 39973 290.2 300 99 0 0 0 0
4991	8450983 1861 39973 39973 290.2 300 99 0 0 0 0
4992	8452844 1861 39973 39973 290.2 300 99 0 0 0 0
4993	8454705 1861 39973 39973 290.2 300 99 0 0 0 0
4994	8456566 1861 39973 39973 290.2 300 99 0 0 0 0
4995	8458427 1861 39973 39973 290.2 300 99 0 0 0 0
4996	8460288 1371 39973 39973 292.8 300 73 0 0 0 0
4997	8461659 1371 39973 39973 292.8 300 73 0 0 0 0
4998	8463030 1371 39973 39973 292.8 300 73 0 0 0 0
4999	8464401 1371 39973 39973 292.8 300 73 0 0 0 0
5000	8465772 1371 39973 39973 292.8 300 73 0 0 0 0
5001	8467143 1371 39973 39973 292.8 300 73 0 0 0 0

