file 8116369 1733090559                                         
version 3
run plain-0-20241201-15:05:11-19484
attr configname plain
attr datetime 20241201-15:05:11
attr datetimef 20241201-150511
attr experiment plain
attr inifile omnetpp.ini
attr iterationvars ""
attr iterationvarsd ""
attr iterationvarsf ""
attr measurement ""
attr network Scenario
attr processid 19484
attr repetition 0
attr replication #0
attr resultdir results
attr runnumber 0
attr seedset 0
config image-path ../../../inet-master/images:../../../veins-master/images
config *.visualizer.osgVisualizer.typename ""
config network Scenario
config sim-time-limit 300s
config debug-on-errors true
config cmdenv-express-mode true
config image-path ../../../../images
config *.node[0].numApps 1
config *.node[0].app[0].typename flooding14c.veins_inet.VeinsInetSampleApplication
config *.node[0].app[0].interface "\"wlan0\""
config *.node[0].wlan[0].opMode "\"p\""
config *.node[0].wlan[0].radio.typename Ieee80211DimensionalRadio
config *.node[0].wlan[0].radio.bandName "\"5.9 GHz\""
config *.node[0].wlan[0].radio.channelNumber 1
config *.node[0].wlan[0].radio.transmitter.power 0.50mW
config *.node[0].wlan[0].radio.bandwidth "10 MHz"
config *.node[0].wlan[*].radio.antenna.mobility.typename AttachedMobility
config *.node[0].wlan[*].radio.antenna.mobility.mobilityModule "\"^.^.^.^.mobility\""
config *.node[0].wlan[*].radio.antenna.mobility.offsetX -2.5m
config *.node[0].wlan[*].radio.antenna.mobility.offsetZ 6m
config *.node[0].wlan[*].radio.antenna.mobility.constraintAreaMinX 0m
config *.node[0].wlan[*].radio.antenna.mobility.constraintAreaMaxX 0m
config *.node[0].wlan[*].radio.antenna.mobility.constraintAreaMinY 0m
config *.node[0].wlan[*].radio.antenna.mobility.constraintAreaMaxY 0m
config *.node[0].wlan[*].radio.antenna.mobility.constraintAreaMinZ 0m
config *.node[0].wlan[*].radio.antenna.mobility.constraintAreaMaxZ 0m
config *.node[0].wlan[*].radio.displayCommunicationRange true
config *.node[0].ipv4.configurator.typename HostAutoConfigurator
config *.node[0].ipv4.configurator.interfaces "\"wlan0\""
config *.node[0].ipv4.configurator.mcastGroups "\"224.0.0.1\""
config *.node[0].mobility.typename VeinsInetMobility
config *.node[1].numApps 1
config *.node[1].app[0].typename flooding14c.veins_inet.VeinsInetSampleApplication
config *.node[1].app[0].interface "\"wlan0\""
config *.node[1].wlan[0].opMode "\"p\""
config *.node[1].wlan[0].radio.typename Ieee80211DimensionalRadio
config *.node[1].wlan[0].radio.bandName "\"5.9 GHz\""
config *.node[1].wlan[0].radio.channelNumber 1
config *.node[1].wlan[0].radio.transmitter.power 0.50mW
config *.node[1].wlan[0].radio.bandwidth "10 MHz"
config *.node[1].wlan[*].radio.antenna.mobility.typename AttachedMobility
config *.node[1].wlan[*].radio.antenna.mobility.mobilityModule "\"^.^.^.^.mobility\""
config *.node[1].wlan[*].radio.antenna.mobility.offsetX -2.5m
config *.node[1].wlan[*].radio.antenna.mobility.offsetZ 6m
config *.node[1].wlan[*].radio.antenna.mobility.constraintAreaMinX 0m
config *.node[1].wlan[*].radio.antenna.mobility.constraintAreaMaxX 0m
config *.node[1].wlan[*].radio.antenna.mobility.constraintAreaMinY 0m
config *.node[1].wlan[*].radio.antenna.mobility.constraintAreaMaxY 0m
config *.node[1].wlan[*].radio.antenna.mobility.constraintAreaMinZ 0m
config *.node[1].wlan[*].radio.antenna.mobility.constraintAreaMaxZ 0m
config *.node[1].wlan[*].radio.displayCommunicationRange true
config *.node[1].ipv4.configurator.typename HostAutoConfigurator
config *.node[1].ipv4.configurator.interfaces "\"wlan0\""
config *.node[1].ipv4.configurator.mcastGroups "\"224.0.0.1\""
config *.node[1].mobility.typename VeinsInetMobility
config *.node[2].numApps 1
config *.node[2].app[0].typename flooding14c.veins_inet.VeinsInetSampleApplication
config *.node[2].app[0].interface "\"wlan0\""
config *.node[2].wlan[0].opMode "\"p\""
config *.node[2].wlan[0].radio.typename Ieee80211DimensionalRadio
config *.node[2].wlan[0].radio.bandName "\"5.9 GHz\""
config *.node[2].wlan[0].radio.channelNumber 1
config *.node[2].wlan[0].radio.transmitter.power 0.50mW
config *.node[2].wlan[0].radio.bandwidth "10 MHz"
config *.node[2].wlan[*].radio.antenna.mobility.typename AttachedMobility
config *.node[2].wlan[*].radio.antenna.mobility.mobilityModule "\"^.^.^.^.mobility\""
config *.node[2].wlan[*].radio.antenna.mobility.offsetX -2.5m
config *.node[2].wlan[*].radio.antenna.mobility.offsetZ 6m
config *.node[2].wlan[*].radio.antenna.mobility.constraintAreaMinX 0m
config *.node[2].wlan[*].radio.antenna.mobility.constraintAreaMaxX 0m
config *.node[2].wlan[*].radio.antenna.mobility.constraintAreaMinY 0m
config *.node[2].wlan[*].radio.antenna.mobility.constraintAreaMaxY 0m
config *.node[2].wlan[*].radio.antenna.mobility.constraintAreaMinZ 0m
config *.node[2].wlan[*].radio.antenna.mobility.constraintAreaMaxZ 0m
config *.node[2].wlan[*].radio.displayCommunicationRange true
config *.node[2].ipv4.configurator.typename HostAutoConfigurator
config *.node[2].ipv4.configurator.interfaces "\"wlan0\""
config *.node[2].ipv4.configurator.mcastGroups "\"224.0.0.1\""
config *.node[2].mobility.typename VeinsInetMobility
config *.node[3].numApps 1
config *.node[3].app[0].typename flooding14c.veins_inet.VeinsInetSampleApplication
config *.node[3].app[0].interface "\"wlan0\""
config *.node[3].wlan[0].opMode "\"p\""
config *.node[3].wlan[0].radio.typename Ieee80211DimensionalRadio
config *.node[3].wlan[0].radio.bandName "\"5.9 GHz\""
config *.node[3].wlan[0].radio.channelNumber 1
config *.node[3].wlan[0].radio.transmitter.power 0.50mW
config *.node[3].wlan[0].radio.bandwidth "10 MHz"
config *.node[3].wlan[*].radio.antenna.mobility.typename AttachedMobility
config *.node[3].wlan[*].radio.antenna.mobility.mobilityModule "\"^.^.^.^.mobility\""
config *.node[3].wlan[*].radio.antenna.mobility.offsetX -2.5m
config *.node[3].wlan[*].radio.antenna.mobility.offsetZ 6m
config *.node[3].wlan[*].radio.antenna.mobility.constraintAreaMinX 0m
config *.node[3].wlan[*].radio.antenna.mobility.constraintAreaMaxX 0m
config *.node[3].wlan[*].radio.antenna.mobility.constraintAreaMinY 0m
config *.node[3].wlan[*].radio.antenna.mobility.constraintAreaMaxY 0m
config *.node[3].wlan[*].radio.antenna.mobility.constraintAreaMinZ 0m
config *.node[3].wlan[*].radio.antenna.mobility.constraintAreaMaxZ 0m
config *.node[3].wlan[*].radio.displayCommunicationRange true
config *.node[3].ipv4.configurator.typename HostAutoConfigurator
config *.node[3].ipv4.configurator.interfaces "\"wlan0\""
config *.node[3].ipv4.configurator.mcastGroups "\"224.0.0.1\""
config *.node[3].mobility.typename VeinsInetMobility
config *.node[4].numApps 1
config *.node[4].app[0].typename flooding14c.veins_inet.VeinsInetSampleApplication
config *.node[4].app[0].interface "\"wlan0\""
config *.node[4].wlan[0].opMode "\"p\""
config *.node[4].wlan[0].radio.typename Ieee80211DimensionalRadio
config *.node[4].wlan[0].radio.bandName "\"5.9 GHz\""
config *.node[4].wlan[0].radio.channelNumber 1
config *.node[4].wlan[0].radio.transmitter.power 0.50mW
config *.node[4].wlan[0].radio.bandwidth "10 MHz"
config *.node[4].wlan[*].radio.antenna.mobility.typename AttachedMobility
config *.node[4].wlan[*].radio.antenna.mobility.mobilityModule "\"^.^.^.^.mobility\""
config *.node[4].wlan[*].radio.antenna.mobility.offsetX -2.5m
config *.node[4].wlan[*].radio.antenna.mobility.offsetZ 6m
config *.node[4].wlan[*].radio.antenna.mobility.constraintAreaMinX 0m
config *.node[4].wlan[*].radio.antenna.mobility.constraintAreaMaxX 0m
config *.node[4].wlan[*].radio.antenna.mobility.constraintAreaMinY 0m
config *.node[4].wlan[*].radio.antenna.mobility.constraintAreaMaxY 0m
config *.node[4].wlan[*].radio.antenna.mobility.constraintAreaMinZ 0m
config *.node[4].wlan[*].radio.antenna.mobility.constraintAreaMaxZ 0m
config *.node[4].wlan[*].radio.displayCommunicationRange true
config *.node[4].ipv4.configurator.typename HostAutoConfigurator
config *.node[4].ipv4.configurator.interfaces "\"wlan0\""
config *.node[4].ipv4.configurator.mcastGroups "\"224.0.0.1\""
config *.node[4].mobility.typename VeinsInetMobility
config *.node[*].numApps 1
config *.node[*].app[0].typename flooding14c.veins_inet.VeinsInetSampleApplication
config *.node[*].app[0].interface "\"wlan0\""
config *.node[*].wlan[0].opMode "\"p\""
config *.node[*].wlan[0].radio.typename Ieee80211DimensionalRadio
config *.node[*].wlan[0].radio.bandName "\"5.9 GHz\""
config *.node[*].wlan[0].radio.channelNumber 3
config *.node[*].wlan[0].radio.transmitter.power 20mW
config *.node[*].wlan[0].radio.bandwidth "10 MHz"
config *.node[*].wlan[*].radio.antenna.mobility.typename AttachedMobility
config *.node[*].wlan[*].radio.antenna.mobility.mobilityModule "\"^.^.^.^.mobility\""
config *.node[*].wlan[*].radio.antenna.mobility.offsetX -2.5m
config *.node[*].wlan[*].radio.antenna.mobility.offsetZ 1.5m
config *.node[*].wlan[*].radio.antenna.mobility.constraintAreaMinX 0m
config *.node[*].wlan[*].radio.antenna.mobility.constraintAreaMaxX 0m
config *.node[*].wlan[*].radio.antenna.mobility.constraintAreaMinY 0m
config *.node[*].wlan[*].radio.antenna.mobility.constraintAreaMaxY 0m
config *.node[*].wlan[*].radio.antenna.mobility.constraintAreaMinZ 0m
config *.node[*].wlan[*].radio.antenna.mobility.constraintAreaMaxZ 0m
config *.node[*].ipv4.configurator.typename HostAutoConfigurator
config *.node[*].ipv4.configurator.interfaces "\"wlan0\""
config *.node[*].ipv4.configurator.mcastGroups "\"224.0.0.1\""
config *.node[*].mobility.typename VeinsInetMobility
config *.manager.updateInterval 0.1s
config *.manager.host "\"localhost\""
config *.manager.port 9999
config *.manager.autoShutdown true
config *.manager.launchConfig "xmldoc(\"square.launchd.xml\")"
config *.manager.moduleType "\"flooding14c.veins_inet.VeinsInetCar\""
config *.physicalEnvironment.config "xmldoc(\"obstacles.xml\")"
config *.radioMedium.obstacleLoss.typename IdealObstacleLoss
config **.vector-recording true

vector 0 Scenario.node[0].wlan[0].mac.dcf frameSequenceActive:vector ETV
attr autoWarmupFilter false
attr interpolationmode sample-hold
attr recordingmode vector
attr source warmup(count(frameSequenceStarted)-count(frameSequenceFinished))
attr title "frame sequence active"
vector 1 Scenario.node[0].wlan[0].mac.dcf.channelAccess.inProgressFrames queueLength:vector ETV
attr autoWarmupFilter false
attr interpolationmode sample-hold
attr recordingmode vector
attr source "warmup(count(packetEnqueued) - count(packetDequeued))"
attr title "queue length"
vector 2 Scenario.node[0].wlan[0].mac.dcf.channelAccess.contention backoffActive:vector ETV
attr autoWarmupFilter false
attr interpolationmode sample-hold
attr recordingmode vector
attr source warmup(count(backoffStarted)-count(backoffStopped))
attr title "backoff active"
vector 3 Scenario.node[0].udp passedUpPk:vector(count) ETV
attr interpolationmode none
attr recordingmode vector(count)
attr source packetSentToUpper
attr title "packets passed up, count"
vector 4 Scenario.node[0].udp droppedPkWrongPort:vector(count) ETV
attr interpolationmode none
attr recordingmode vector(count)
attr source packetDropReasonIsNoPortFound(packetDropped)
attr title "packets dropped (wrong port), count"
vector 5 Scenario.node[0].udp droppedPkBadChecksum:vector(count) ETV
attr interpolationmode none
attr recordingmode vector(count)
attr source packetDropReasonIsIncorrectlyReceived(packetDropped)
attr title "packets dropped (checksum error), count"
vector 6 Scenario.node[0].wlan[0].radio radioMode:vector ETV
attr interpolationmode sample-hold
attr recordingmode vector
attr source radioModeChanged
attr title "Radio mode"
vector 7 Scenario.node[0].wlan[0].radio radioChannel:vector ETV
attr interpolationmode sample-hold
attr recordingmode vector
attr source radioChannelChanged
attr title "Radio channel"
vector 8 Scenario.node[0].wlan[0].radio receptionState:vector ETV
attr interpolationmode sample-hold
attr recordingmode vector
attr source receptionStateChanged
attr title "Radio reception state"
vector 9 Scenario.node[0].wlan[0].mac.dcf.channelAccess.contention stateChanged:vector ETV
attr enum IDLE,DEFER,IFS_AND_BACKOFF
attr interpolationmode none
attr recordingmode vector
attr title "contention state changed"
attr type enum
vector 10 Scenario.node[0].wlan[0].mac.dcf.recoveryProcedure contentionWindowChanged:vector ETV
attr interpolationmode sample-hold
attr recordingmode vector
attr title "contention window"
vector 11 Scenario.node[1].wlan[0].mac.dcf frameSequenceActive:vector ETV
attr autoWarmupFilter false
attr interpolationmode sample-hold
attr recordingmode vector
attr source warmup(count(frameSequenceStarted)-count(frameSequenceFinished))
attr title "frame sequence active"
vector 12 Scenario.node[1].wlan[0].mac.dcf.channelAccess.inProgressFrames queueLength:vector ETV
attr autoWarmupFilter false
attr interpolationmode sample-hold
attr recordingmode vector
attr source "warmup(count(packetEnqueued) - count(packetDequeued))"
attr title "queue length"
vector 13 Scenario.node[1].wlan[0].mac.dcf.channelAccess.contention backoffActive:vector ETV
attr autoWarmupFilter false
attr interpolationmode sample-hold
attr recordingmode vector
attr source warmup(count(backoffStarted)-count(backoffStopped))
attr title "backoff active"
vector 14 Scenario.node[1].udp passedUpPk:vector(count) ETV
attr interpolationmode none
attr recordingmode vector(count)
attr source packetSentToUpper
attr title "packets passed up, count"
vector 15 Scenario.node[1].udp droppedPkWrongPort:vector(count) ETV
attr interpolationmode none
attr recordingmode vector(count)
attr source packetDropReasonIsNoPortFound(packetDropped)
attr title "packets dropped (wrong port), count"
vector 16 Scenario.node[1].udp droppedPkBadChecksum:vector(count) ETV
attr interpolationmode none
attr recordingmode vector(count)
attr source packetDropReasonIsIncorrectlyReceived(packetDropped)
attr title "packets dropped (checksum error), count"
vector 17 Scenario.node[1].wlan[0].radio radioMode:vector ETV
attr interpolationmode sample-hold
attr recordingmode vector
attr source radioModeChanged
attr title "Radio mode"
vector 18 Scenario.node[1].wlan[0].radio radioChannel:vector ETV
attr interpolationmode sample-hold
attr recordingmode vector
attr source radioChannelChanged
attr title "Radio channel"
vector 19 Scenario.node[1].wlan[0].radio receptionState:vector ETV
attr interpolationmode sample-hold
attr recordingmode vector
attr source receptionStateChanged
attr title "Radio reception state"
vector 20 Scenario.node[1].wlan[0].mac.dcf.channelAccess.contention stateChanged:vector ETV
attr enum IDLE,DEFER,IFS_AND_BACKOFF
attr interpolationmode none
attr recordingmode vector
attr title "contention state changed"
attr type enum
vector 21 Scenario.node[1].wlan[0].mac.dcf.recoveryProcedure contentionWindowChanged:vector ETV
attr interpolationmode sample-hold
attr recordingmode vector
attr title "contention window"
vector 22 Scenario.node[2].wlan[0].mac.dcf frameSequenceActive:vector ETV
attr autoWarmupFilter false
attr interpolationmode sample-hold
attr recordingmode vector
attr source warmup(count(frameSequenceStarted)-count(frameSequenceFinished))
attr title "frame sequence active"
vector 23 Scenario.node[2].wlan[0].mac.dcf.channelAccess.inProgressFrames queueLength:vector ETV
attr autoWarmupFilter false
attr interpolationmode sample-hold
attr recordingmode vector
attr source "warmup(count(packetEnqueued) - count(packetDequeued))"
attr title "queue length"
vector 24 Scenario.node[2].wlan[0].mac.dcf.channelAccess.contention backoffActive:vector ETV
attr autoWarmupFilter false
attr interpolationmode sample-hold
attr recordingmode vector
attr source warmup(count(backoffStarted)-count(backoffStopped))
attr title "backoff active"
vector 25 Scenario.node[2].udp passedUpPk:vector(count) ETV
attr interpolationmode none
attr recordingmode vector(count)
attr source packetSentToUpper
attr title "packets passed up, count"
vector 26 Scenario.node[2].udp droppedPkWrongPort:vector(count) ETV
attr interpolationmode none
attr recordingmode vector(count)
attr source packetDropReasonIsNoPortFound(packetDropped)
attr title "packets dropped (wrong port), count"
vector 27 Scenario.node[2].udp droppedPkBadChecksum:vector(count) ETV
attr interpolationmode none
attr recordingmode vector(count)
attr source packetDropReasonIsIncorrectlyReceived(packetDropped)
attr title "packets dropped (checksum error), count"
vector 28 Scenario.node[2].wlan[0].radio radioMode:vector ETV
attr interpolationmode sample-hold
attr recordingmode vector
attr source radioModeChanged
attr title "Radio mode"
vector 29 Scenario.node[2].wlan[0].radio radioChannel:vector ETV
attr interpolationmode sample-hold
attr recordingmode vector
attr source radioChannelChanged
attr title "Radio channel"
vector 30 Scenario.node[2].wlan[0].radio receptionState:vector ETV
attr interpolationmode sample-hold
attr recordingmode vector
attr source receptionStateChanged
attr title "Radio reception state"
vector 31 Scenario.node[2].wlan[0].mac.dcf.channelAccess.contention stateChanged:vector ETV
attr enum IDLE,DEFER,IFS_AND_BACKOFF
attr interpolationmode none
attr recordingmode vector
attr title "contention state changed"
attr type enum
vector 32 Scenario.node[2].wlan[0].mac.dcf.recoveryProcedure contentionWindowChanged:vector ETV
attr interpolationmode sample-hold
attr recordingmode vector
attr title "contention window"
vector 33 Scenario.node[3].wlan[0].mac.dcf frameSequenceActive:vector ETV
attr autoWarmupFilter false
attr interpolationmode sample-hold
attr recordingmode vector
attr source warmup(count(frameSequenceStarted)-count(frameSequenceFinished))
attr title "frame sequence active"
vector 34 Scenario.node[3].wlan[0].mac.dcf.channelAccess.inProgressFrames queueLength:vector ETV
attr autoWarmupFilter false
attr interpolationmode sample-hold
attr recordingmode vector
attr source "warmup(count(packetEnqueued) - count(packetDequeued))"
attr title "queue length"
vector 35 Scenario.node[3].wlan[0].mac.dcf.channelAccess.contention backoffActive:vector ETV
attr autoWarmupFilter false
attr interpolationmode sample-hold
attr recordingmode vector
attr source warmup(count(backoffStarted)-count(backoffStopped))
attr title "backoff active"
vector 36 Scenario.node[3].udp passedUpPk:vector(count) ETV
attr interpolationmode none
attr recordingmode vector(count)
attr source packetSentToUpper
attr title "packets passed up, count"
vector 37 Scenario.node[3].udp droppedPkWrongPort:vector(count) ETV
attr interpolationmode none
attr recordingmode vector(count)
attr source packetDropReasonIsNoPortFound(packetDropped)
attr title "packets dropped (wrong port), count"
vector 38 Scenario.node[3].udp droppedPkBadChecksum:vector(count) ETV
attr interpolationmode none
attr recordingmode vector(count)
attr source packetDropReasonIsIncorrectlyReceived(packetDropped)
attr title "packets dropped (checksum error), count"
vector 39 Scenario.node[3].wlan[0].radio radioMode:vector ETV
attr interpolationmode sample-hold
attr recordingmode vector
attr source radioModeChanged
attr title "Radio mode"
vector 40 Scenario.node[3].wlan[0].radio radioChannel:vector ETV
attr interpolationmode sample-hold
attr recordingmode vector
attr source radioChannelChanged
attr title "Radio channel"
vector 41 Scenario.node[3].wlan[0].radio receptionState:vector ETV
attr interpolationmode sample-hold
attr recordingmode vector
attr source receptionStateChanged
attr title "Radio reception state"
vector 42 Scenario.node[3].wlan[0].mac.dcf.channelAccess.contention stateChanged:vector ETV
attr enum IDLE,DEFER,IFS_AND_BACKOFF
attr interpolationmode none
attr recordingmode vector
attr title "contention state changed"
attr type enum
vector 43 Scenario.node[3].wlan[0].mac.dcf.recoveryProcedure contentionWindowChanged:vector ETV
attr interpolationmode sample-hold
attr recordingmode vector
attr title "contention window"
vector 44 Scenario.node[4].wlan[0].mac.dcf frameSequenceActive:vector ETV
attr autoWarmupFilter false
attr interpolationmode sample-hold
attr recordingmode vector
attr source warmup(count(frameSequenceStarted)-count(frameSequenceFinished))
attr title "frame sequence active"
vector 45 Scenario.node[4].wlan[0].mac.dcf.channelAccess.inProgressFrames queueLength:vector ETV
attr autoWarmupFilter false
attr interpolationmode sample-hold
attr recordingmode vector
attr source "warmup(count(packetEnqueued) - count(packetDequeued))"
attr title "queue length"
vector 46 Scenario.node[4].wlan[0].mac.dcf.channelAccess.contention backoffActive:vector ETV
attr autoWarmupFilter false
attr interpolationmode sample-hold
attr recordingmode vector
attr source warmup(count(backoffStarted)-count(backoffStopped))
attr title "backoff active"
vector 47 Scenario.node[4].udp passedUpPk:vector(count) ETV
attr interpolationmode none
attr recordingmode vector(count)
attr source packetSentToUpper
attr title "packets passed up, count"
vector 48 Scenario.node[4].udp droppedPkWrongPort:vector(count) ETV
attr interpolationmode none
attr recordingmode vector(count)
attr source packetDropReasonIsNoPortFound(packetDropped)
attr title "packets dropped (wrong port), count"
vector 49 Scenario.node[4].udp droppedPkBadChecksum:vector(count) ETV
attr interpolationmode none
attr recordingmode vector(count)
attr source packetDropReasonIsIncorrectlyReceived(packetDropped)
attr title "packets dropped (checksum error), count"
vector 50 Scenario.node[4].wlan[0].radio radioMode:vector ETV
attr interpolationmode sample-hold
attr recordingmode vector
attr source radioModeChanged
attr title "Radio mode"
vector 51 Scenario.node[4].wlan[0].radio radioChannel:vector ETV
attr interpolationmode sample-hold
attr recordingmode vector
attr source radioChannelChanged
attr title "Radio channel"
vector 52 Scenario.node[4].wlan[0].radio receptionState:vector ETV
attr interpolationmode sample-hold
attr recordingmode vector
attr source receptionStateChanged
attr title "Radio reception state"
vector 53 Scenario.node[4].wlan[0].mac.dcf.channelAccess.contention stateChanged:vector ETV
attr enum IDLE,DEFER,IFS_AND_BACKOFF
attr interpolationmode none
attr recordingmode vector
attr title "contention state changed"
attr type enum
vector 54 Scenario.node[4].wlan[0].mac.dcf.recoveryProcedure contentionWindowChanged:vector ETV
attr interpolationmode sample-hold
attr recordingmode vector
attr title "contention window"
vector 55 Scenario.node[5].wlan[0].mac.dcf frameSequenceActive:vector ETV
attr autoWarmupFilter false
attr interpolationmode sample-hold
attr recordingmode vector
attr source warmup(count(frameSequenceStarted)-count(frameSequenceFinished))
attr title "frame sequence active"
vector 56 Scenario.node[5].wlan[0].mac.dcf.channelAccess.inProgressFrames queueLength:vector ETV
attr autoWarmupFilter false
attr interpolationmode sample-hold
attr recordingmode vector
attr source "warmup(count(packetEnqueued) - count(packetDequeued))"
attr title "queue length"
vector 57 Scenario.node[5].wlan[0].mac.dcf.channelAccess.contention backoffActive:vector ETV
attr autoWarmupFilter false
attr interpolationmode sample-hold
attr recordingmode vector
attr source warmup(count(backoffStarted)-count(backoffStopped))
attr title "backoff active"
vector 58 Scenario.node[5].udp passedUpPk:vector(count) ETV
attr interpolationmode none
attr recordingmode vector(count)
attr source packetSentToUpper
attr title "packets passed up, count"
vector 59 Scenario.node[5].udp droppedPkWrongPort:vector(count) ETV
attr interpolationmode none
attr recordingmode vector(count)
attr source packetDropReasonIsNoPortFound(packetDropped)
attr title "packets dropped (wrong port), count"
vector 60 Scenario.node[5].udp droppedPkBadChecksum:vector(count) ETV
attr interpolationmode none
attr recordingmode vector(count)
attr source packetDropReasonIsIncorrectlyReceived(packetDropped)
attr title "packets dropped (checksum error), count"
vector 61 Scenario.node[5].wlan[0].radio radioMode:vector ETV
attr interpolationmode sample-hold
attr recordingmode vector
attr source radioModeChanged
attr title "Radio mode"
vector 62 Scenario.node[5].wlan[0].radio radioChannel:vector ETV
attr interpolationmode sample-hold
attr recordingmode vector
attr source radioChannelChanged
attr title "Radio channel"
vector 63 Scenario.node[5].wlan[0].radio receptionState:vector ETV
attr interpolationmode sample-hold
attr recordingmode vector
attr source receptionStateChanged
attr title "Radio reception state"
vector 64 Scenario.node[5].wlan[0].mac.dcf.channelAccess.contention stateChanged:vector ETV
attr enum IDLE,DEFER,IFS_AND_BACKOFF
attr interpolationmode none
attr recordingmode vector
attr title "contention state changed"
attr type enum
vector 65 Scenario.node[5].wlan[0].mac.dcf.recoveryProcedure contentionWindowChanged:vector ETV
attr interpolationmode sample-hold
attr recordingmode vector
attr title "contention window"
vector 66 Scenario.node[6].wlan[0].mac.dcf frameSequenceActive:vector ETV
attr autoWarmupFilter false
attr interpolationmode sample-hold
attr recordingmode vector
attr source warmup(count(frameSequenceStarted)-count(frameSequenceFinished))
attr title "frame sequence active"
vector 67 Scenario.node[6].wlan[0].mac.dcf.channelAccess.inProgressFrames queueLength:vector ETV
attr autoWarmupFilter false
attr interpolationmode sample-hold
attr recordingmode vector
attr source "warmup(count(packetEnqueued) - count(packetDequeued))"
attr title "queue length"
vector 68 Scenario.node[6].wlan[0].mac.dcf.channelAccess.contention backoffActive:vector ETV
attr autoWarmupFilter false
attr interpolationmode sample-hold
attr recordingmode vector
attr source warmup(count(backoffStarted)-count(backoffStopped))
attr title "backoff active"
vector 69 Scenario.node[6].udp passedUpPk:vector(count) ETV
attr interpolationmode none
attr recordingmode vector(count)
attr source packetSentToUpper
attr title "packets passed up, count"
vector 70 Scenario.node[6].udp droppedPkWrongPort:vector(count) ETV
attr interpolationmode none
attr recordingmode vector(count)
attr source packetDropReasonIsNoPortFound(packetDropped)
attr title "packets dropped (wrong port), count"
vector 71 Scenario.node[6].udp droppedPkBadChecksum:vector(count) ETV
attr interpolationmode none
attr recordingmode vector(count)
attr source packetDropReasonIsIncorrectlyReceived(packetDropped)
attr title "packets dropped (checksum error), count"
vector 72 Scenario.node[6].wlan[0].radio radioMode:vector ETV
attr interpolationmode sample-hold
attr recordingmode vector
attr source radioModeChanged
attr title "Radio mode"
vector 73 Scenario.node[6].wlan[0].radio radioChannel:vector ETV
attr interpolationmode sample-hold
attr recordingmode vector
attr source radioChannelChanged
attr title "Radio channel"
vector 74 Scenario.node[6].wlan[0].radio receptionState:vector ETV
attr interpolationmode sample-hold
attr recordingmode vector
attr source receptionStateChanged
attr title "Radio reception state"
vector 75 Scenario.node[6].wlan[0].mac.dcf.channelAccess.contention stateChanged:vector ETV
attr enum IDLE,DEFER,IFS_AND_BACKOFF
attr interpolationmode none
attr recordingmode vector
attr title "contention state changed"
attr type enum
vector 76 Scenario.node[6].wlan[0].mac.dcf.recoveryProcedure contentionWindowChanged:vector ETV
attr interpolationmode sample-hold
attr recordingmode vector
attr title "contention window"
vector 77 Scenario.node[7].wlan[0].mac.dcf frameSequenceActive:vector ETV
attr autoWarmupFilter false
attr interpolationmode sample-hold
attr recordingmode vector
attr source warmup(count(frameSequenceStarted)-count(frameSequenceFinished))
attr title "frame sequence active"
vector 78 Scenario.node[7].wlan[0].mac.dcf.channelAccess.inProgressFrames queueLength:vector ETV
attr autoWarmupFilter false
attr interpolationmode sample-hold
attr recordingmode vector
attr source "warmup(count(packetEnqueued) - count(packetDequeued))"
attr title "queue length"
vector 79 Scenario.node[7].wlan[0].mac.dcf.channelAccess.contention backoffActive:vector ETV
attr autoWarmupFilter false
attr interpolationmode sample-hold
attr recordingmode vector
attr source warmup(count(backoffStarted)-count(backoffStopped))
attr title "backoff active"
vector 80 Scenario.node[7].udp passedUpPk:vector(count) ETV
attr interpolationmode none
attr recordingmode vector(count)
attr source packetSentToUpper
attr title "packets passed up, count"
vector 81 Scenario.node[7].udp droppedPkWrongPort:vector(count) ETV
attr interpolationmode none
attr recordingmode vector(count)
attr source packetDropReasonIsNoPortFound(packetDropped)
attr title "packets dropped (wrong port), count"
vector 82 Scenario.node[7].udp droppedPkBadChecksum:vector(count) ETV
attr interpolationmode none
attr recordingmode vector(count)
attr source packetDropReasonIsIncorrectlyReceived(packetDropped)
attr title "packets dropped (checksum error), count"
vector 83 Scenario.node[7].wlan[0].radio radioMode:vector ETV
attr interpolationmode sample-hold
attr recordingmode vector
attr source radioModeChanged
attr title "Radio mode"
vector 84 Scenario.node[7].wlan[0].radio radioChannel:vector ETV
attr interpolationmode sample-hold
attr recordingmode vector
attr source radioChannelChanged
attr title "Radio channel"
vector 85 Scenario.node[7].wlan[0].radio receptionState:vector ETV
attr interpolationmode sample-hold
attr recordingmode vector
attr source receptionStateChanged
attr title "Radio reception state"
vector 86 Scenario.node[7].wlan[0].mac.dcf.channelAccess.contention stateChanged:vector ETV
attr enum IDLE,DEFER,IFS_AND_BACKOFF
attr interpolationmode none
attr recordingmode vector
attr title "contention state changed"
attr type enum
vector 87 Scenario.node[7].wlan[0].mac.dcf.recoveryProcedure contentionWindowChanged:vector ETV
attr interpolationmode sample-hold
attr recordingmode vector
attr title "contention window"
vector 88 Scenario.node[8].wlan[0].mac.dcf frameSequenceActive:vector ETV
attr autoWarmupFilter false
attr interpolationmode sample-hold
attr recordingmode vector
attr source warmup(count(frameSequenceStarted)-count(frameSequenceFinished))
attr title "frame sequence active"
vector 89 Scenario.node[8].wlan[0].mac.dcf.channelAccess.inProgressFrames queueLength:vector ETV
attr autoWarmupFilter false
attr interpolationmode sample-hold
attr recordingmode vector
attr source "warmup(count(packetEnqueued) - count(packetDequeued))"
attr title "queue length"
vector 90 Scenario.node[8].wlan[0].mac.dcf.channelAccess.contention backoffActive:vector ETV
attr autoWarmupFilter false
attr interpolationmode sample-hold
attr recordingmode vector
attr source warmup(count(backoffStarted)-count(backoffStopped))
attr title "backoff active"
vector 91 Scenario.node[8].udp passedUpPk:vector(count) ETV
attr interpolationmode none
attr recordingmode vector(count)
attr source packetSentToUpper
attr title "packets passed up, count"
vector 92 Scenario.node[8].udp droppedPkWrongPort:vector(count) ETV
attr interpolationmode none
attr recordingmode vector(count)
attr source packetDropReasonIsNoPortFound(packetDropped)
attr title "packets dropped (wrong port), count"
vector 93 Scenario.node[8].udp droppedPkBadChecksum:vector(count) ETV
attr interpolationmode none
attr recordingmode vector(count)
attr source packetDropReasonIsIncorrectlyReceived(packetDropped)
attr title "packets dropped (checksum error), count"
vector 94 Scenario.node[8].wlan[0].radio radioMode:vector ETV
attr interpolationmode sample-hold
attr recordingmode vector
attr source radioModeChanged
attr title "Radio mode"
vector 95 Scenario.node[8].wlan[0].radio radioChannel:vector ETV
attr interpolationmode sample-hold
attr recordingmode vector
attr source radioChannelChanged
attr title "Radio channel"
vector 96 Scenario.node[8].wlan[0].radio receptionState:vector ETV
attr interpolationmode sample-hold
attr recordingmode vector
attr source receptionStateChanged
attr title "Radio reception state"
vector 97 Scenario.node[8].wlan[0].mac.dcf.channelAccess.contention stateChanged:vector ETV
attr enum IDLE,DEFER,IFS_AND_BACKOFF
attr interpolationmode none
attr recordingmode vector
attr title "contention state changed"
attr type enum
vector 98 Scenario.node[8].wlan[0].mac.dcf.recoveryProcedure contentionWindowChanged:vector ETV
attr interpolationmode sample-hold
attr recordingmode vector
attr title "contention window"
vector 99 Scenario.node[9].wlan[0].mac.dcf frameSequenceActive:vector ETV
attr autoWarmupFilter false
attr interpolationmode sample-hold
attr recordingmode vector
attr source warmup(count(frameSequenceStarted)-count(frameSequenceFinished))
attr title "frame sequence active"
vector 100 Scenario.node[9].wlan[0].mac.dcf.channelAccess.inProgressFrames queueLength:vector ETV
attr autoWarmupFilter false
attr interpolationmode sample-hold
attr recordingmode vector
attr source "warmup(count(packetEnqueued) - count(packetDequeued))"
attr title "queue length"
vector 101 Scenario.node[9].wlan[0].mac.dcf.channelAccess.contention backoffActive:vector ETV
attr autoWarmupFilter false
attr interpolationmode sample-hold
attr recordingmode vector
attr source warmup(count(backoffStarted)-count(backoffStopped))
attr title "backoff active"
vector 102 Scenario.node[9].udp passedUpPk:vector(count) ETV
attr interpolationmode none
attr recordingmode vector(count)
attr source packetSentToUpper
attr title "packets passed up, count"
vector 103 Scenario.node[9].udp droppedPkWrongPort:vector(count) ETV
attr interpolationmode none
attr recordingmode vector(count)
attr source packetDropReasonIsNoPortFound(packetDropped)
attr title "packets dropped (wrong port), count"
vector 104 Scenario.node[9].udp droppedPkBadChecksum:vector(count) ETV
attr interpolationmode none
attr recordingmode vector(count)
attr source packetDropReasonIsIncorrectlyReceived(packetDropped)
attr title "packets dropped (checksum error), count"
vector 105 Scenario.node[9].wlan[0].radio radioMode:vector ETV
attr interpolationmode sample-hold
attr recordingmode vector
attr source radioModeChanged
attr title "Radio mode"
vector 106 Scenario.node[9].wlan[0].radio radioChannel:vector ETV
attr interpolationmode sample-hold
attr recordingmode vector
attr source radioChannelChanged
attr title "Radio channel"
vector 107 Scenario.node[9].wlan[0].radio receptionState:vector ETV
attr interpolationmode sample-hold
attr recordingmode vector
attr source receptionStateChanged
attr title "Radio reception state"
vector 108 Scenario.node[9].wlan[0].mac.dcf.channelAccess.contention stateChanged:vector ETV
attr enum IDLE,DEFER,IFS_AND_BACKOFF
attr interpolationmode none
attr recordingmode vector
attr title "contention state changed"
attr type enum
vector 109 Scenario.node[9].wlan[0].mac.dcf.recoveryProcedure contentionWindowChanged:vector ETV
attr interpolationmode sample-hold
attr recordingmode vector
attr title "contention window"
vector 110 Scenario.node[10].wlan[0].mac.dcf frameSequenceActive:vector ETV
attr autoWarmupFilter false
attr interpolationmode sample-hold
attr recordingmode vector
attr source warmup(count(frameSequenceStarted)-count(frameSequenceFinished))
attr title "frame sequence active"
vector 111 Scenario.node[10].wlan[0].mac.dcf.channelAccess.inProgressFrames queueLength:vector ETV
attr autoWarmupFilter false
attr interpolationmode sample-hold
attr recordingmode vector
attr source "warmup(count(packetEnqueued) - count(packetDequeued))"
attr title "queue length"
vector 112 Scenario.node[10].wlan[0].mac.dcf.channelAccess.contention backoffActive:vector ETV
attr autoWarmupFilter false
attr interpolationmode sample-hold
attr recordingmode vector
attr source warmup(count(backoffStarted)-count(backoffStopped))
attr title "backoff active"
vector 113 Scenario.node[10].udp passedUpPk:vector(count) ETV
attr interpolationmode none
attr recordingmode vector(count)
attr source packetSentToUpper
attr title "packets passed up, count"
vector 114 Scenario.node[10].udp droppedPkWrongPort:vector(count) ETV
attr interpolationmode none
attr recordingmode vector(count)
attr source packetDropReasonIsNoPortFound(packetDropped)
attr title "packets dropped (wrong port), count"
vector 115 Scenario.node[10].udp droppedPkBadChecksum:vector(count) ETV
attr interpolationmode none
attr recordingmode vector(count)
attr source packetDropReasonIsIncorrectlyReceived(packetDropped)
attr title "packets dropped (checksum error), count"
vector 116 Scenario.node[10].wlan[0].radio radioMode:vector ETV
attr interpolationmode sample-hold
attr recordingmode vector
attr source radioModeChanged
attr title "Radio mode"
vector 117 Scenario.node[10].wlan[0].radio radioChannel:vector ETV
attr interpolationmode sample-hold
attr recordingmode vector
attr source radioChannelChanged
attr title "Radio channel"
vector 118 Scenario.node[10].wlan[0].radio receptionState:vector ETV
attr interpolationmode sample-hold
attr recordingmode vector
attr source receptionStateChanged
attr title "Radio reception state"
vector 119 Scenario.node[10].wlan[0].mac.dcf.channelAccess.contention stateChanged:vector ETV
attr enum IDLE,DEFER,IFS_AND_BACKOFF
attr interpolationmode none
attr recordingmode vector
attr title "contention state changed"
attr type enum
vector 120 Scenario.node[10].wlan[0].mac.dcf.recoveryProcedure contentionWindowChanged:vector ETV
attr interpolationmode sample-hold
attr recordingmode vector
attr title "contention window"
vector 121 Scenario.node[11].wlan[0].mac.dcf frameSequenceActive:vector ETV
attr autoWarmupFilter false
attr interpolationmode sample-hold
attr recordingmode vector
attr source warmup(count(frameSequenceStarted)-count(frameSequenceFinished))
attr title "frame sequence active"
vector 122 Scenario.node[11].wlan[0].mac.dcf.channelAccess.inProgressFrames queueLength:vector ETV
attr autoWarmupFilter false
attr interpolationmode sample-hold
attr recordingmode vector
attr source "warmup(count(packetEnqueued) - count(packetDequeued))"
attr title "queue length"
vector 123 Scenario.node[11].wlan[0].mac.dcf.channelAccess.contention backoffActive:vector ETV
attr autoWarmupFilter false
attr interpolationmode sample-hold
attr recordingmode vector
attr source warmup(count(backoffStarted)-count(backoffStopped))
attr title "backoff active"
vector 124 Scenario.node[11].udp passedUpPk:vector(count) ETV
attr interpolationmode none
attr recordingmode vector(count)
attr source packetSentToUpper
attr title "packets passed up, count"
vector 125 Scenario.node[11].udp droppedPkWrongPort:vector(count) ETV
attr interpolationmode none
attr recordingmode vector(count)
attr source packetDropReasonIsNoPortFound(packetDropped)
attr title "packets dropped (wrong port), count"
vector 126 Scenario.node[11].udp droppedPkBadChecksum:vector(count) ETV
attr interpolationmode none
attr recordingmode vector(count)
attr source packetDropReasonIsIncorrectlyReceived(packetDropped)
attr title "packets dropped (checksum error), count"
vector 127 Scenario.node[11].wlan[0].radio radioMode:vector ETV
attr interpolationmode sample-hold
attr recordingmode vector
attr source radioModeChanged
attr title "Radio mode"
vector 128 Scenario.node[11].wlan[0].radio radioChannel:vector ETV
attr interpolationmode sample-hold
attr recordingmode vector
attr source radioChannelChanged
attr title "Radio channel"
vector 129 Scenario.node[11].wlan[0].radio receptionState:vector ETV
attr interpolationmode sample-hold
attr recordingmode vector
attr source receptionStateChanged
attr title "Radio reception state"
vector 130 Scenario.node[11].wlan[0].mac.dcf.channelAccess.contention stateChanged:vector ETV
attr enum IDLE,DEFER,IFS_AND_BACKOFF
attr interpolationmode none
attr recordingmode vector
attr title "contention state changed"
attr type enum
vector 131 Scenario.node[11].wlan[0].mac.dcf.recoveryProcedure contentionWindowChanged:vector ETV
attr interpolationmode sample-hold
attr recordingmode vector
attr title "contention window"
vector 132 Scenario.node[12].wlan[0].mac.dcf frameSequenceActive:vector ETV
attr autoWarmupFilter false
attr interpolationmode sample-hold
attr recordingmode vector
attr source warmup(count(frameSequenceStarted)-count(frameSequenceFinished))
attr title "frame sequence active"
vector 133 Scenario.node[12].wlan[0].mac.dcf.channelAccess.inProgressFrames queueLength:vector ETV
attr autoWarmupFilter false
attr interpolationmode sample-hold
attr recordingmode vector
attr source "warmup(count(packetEnqueued) - count(packetDequeued))"
attr title "queue length"
vector 134 Scenario.node[12].wlan[0].mac.dcf.channelAccess.contention backoffActive:vector ETV
attr autoWarmupFilter false
attr interpolationmode sample-hold
attr recordingmode vector
attr source warmup(count(backoffStarted)-count(backoffStopped))
attr title "backoff active"
vector 135 Scenario.node[12].udp passedUpPk:vector(count) ETV
attr interpolationmode none
attr recordingmode vector(count)
attr source packetSentToUpper
attr title "packets passed up, count"
vector 136 Scenario.node[12].udp droppedPkWrongPort:vector(count) ETV
attr interpolationmode none
attr recordingmode vector(count)
attr source packetDropReasonIsNoPortFound(packetDropped)
attr title "packets dropped (wrong port), count"
vector 137 Scenario.node[12].udp droppedPkBadChecksum:vector(count) ETV
attr interpolationmode none
attr recordingmode vector(count)
attr source packetDropReasonIsIncorrectlyReceived(packetDropped)
attr title "packets dropped (checksum error), count"
vector 138 Scenario.node[12].wlan[0].radio radioMode:vector ETV
attr interpolationmode sample-hold
attr recordingmode vector
attr source radioModeChanged
attr title "Radio mode"
vector 139 Scenario.node[12].wlan[0].radio radioChannel:vector ETV
attr interpolationmode sample-hold
attr recordingmode vector
attr source radioChannelChanged
attr title "Radio channel"
vector 140 Scenario.node[12].wlan[0].radio receptionState:vector ETV
attr interpolationmode sample-hold
attr recordingmode vector
attr source receptionStateChanged
attr title "Radio reception state"
vector 141 Scenario.node[12].wlan[0].mac.dcf.channelAccess.contention stateChanged:vector ETV
attr enum IDLE,DEFER,IFS_AND_BACKOFF
attr interpolationmode none
attr recordingmode vector
attr title "contention state changed"
attr type enum
vector 142 Scenario.node[12].wlan[0].mac.dcf.recoveryProcedure contentionWindowChanged:vector ETV
attr interpolationmode sample-hold
attr recordingmode vector
attr title "contention window"
vector 143 Scenario.node[13].wlan[0].mac.dcf frameSequenceActive:vector ETV
attr autoWarmupFilter false
attr interpolationmode sample-hold
attr recordingmode vector
attr source warmup(count(frameSequenceStarted)-count(frameSequenceFinished))
attr title "frame sequence active"
vector 144 Scenario.node[13].wlan[0].mac.dcf.channelAccess.inProgressFrames queueLength:vector ETV
attr autoWarmupFilter false
attr interpolationmode sample-hold
attr recordingmode vector
attr source "warmup(count(packetEnqueued) - count(packetDequeued))"
attr title "queue length"
vector 145 Scenario.node[13].wlan[0].mac.dcf.channelAccess.contention backoffActive:vector ETV
attr autoWarmupFilter false
attr interpolationmode sample-hold
attr recordingmode vector
attr source warmup(count(backoffStarted)-count(backoffStopped))
attr title "backoff active"
vector 146 Scenario.node[13].udp passedUpPk:vector(count) ETV
attr interpolationmode none
attr recordingmode vector(count)
attr source packetSentToUpper
attr title "packets passed up, count"
vector 147 Scenario.node[13].udp droppedPkWrongPort:vector(count) ETV
attr interpolationmode none
attr recordingmode vector(count)
attr source packetDropReasonIsNoPortFound(packetDropped)
attr title "packets dropped (wrong port), count"
vector 148 Scenario.node[13].udp droppedPkBadChecksum:vector(count) ETV
attr interpolationmode none
attr recordingmode vector(count)
attr source packetDropReasonIsIncorrectlyReceived(packetDropped)
attr title "packets dropped (checksum error), count"
vector 149 Scenario.node[13].wlan[0].radio radioMode:vector ETV
attr interpolationmode sample-hold
attr recordingmode vector
attr source radioModeChanged
attr title "Radio mode"
vector 150 Scenario.node[13].wlan[0].radio radioChannel:vector ETV
attr interpolationmode sample-hold
attr recordingmode vector
attr source radioChannelChanged
attr title "Radio channel"
vector 151 Scenario.node[13].wlan[0].radio receptionState:vector ETV
attr interpolationmode sample-hold
attr recordingmode vector
attr source receptionStateChanged
attr title "Radio reception state"
vector 152 Scenario.node[13].wlan[0].mac.dcf.channelAccess.contention stateChanged:vector ETV
attr enum IDLE,DEFER,IFS_AND_BACKOFF
attr interpolationmode none
attr recordingmode vector
attr title "contention state changed"
attr type enum
vector 153 Scenario.node[13].wlan[0].mac.dcf.recoveryProcedure contentionWindowChanged:vector ETV
attr interpolationmode sample-hold
attr recordingmode vector
attr title "contention window"
vector 154 Scenario.node[14].wlan[0].mac.dcf frameSequenceActive:vector ETV
attr autoWarmupFilter false
attr interpolationmode sample-hold
attr recordingmode vector
attr source warmup(count(frameSequenceStarted)-count(frameSequenceFinished))
attr title "frame sequence active"
vector 155 Scenario.node[14].wlan[0].mac.dcf.channelAccess.inProgressFrames queueLength:vector ETV
attr autoWarmupFilter false
attr interpolationmode sample-hold
attr recordingmode vector
attr source "warmup(count(packetEnqueued) - count(packetDequeued))"
attr title "queue length"
vector 156 Scenario.node[14].wlan[0].mac.dcf.channelAccess.contention backoffActive:vector ETV
attr autoWarmupFilter false
attr interpolationmode sample-hold
attr recordingmode vector
attr source warmup(count(backoffStarted)-count(backoffStopped))
attr title "backoff active"
vector 157 Scenario.node[14].udp passedUpPk:vector(count) ETV
attr interpolationmode none
attr recordingmode vector(count)
attr source packetSentToUpper
attr title "packets passed up, count"
vector 158 Scenario.node[14].udp droppedPkWrongPort:vector(count) ETV
attr interpolationmode none
attr recordingmode vector(count)
attr source packetDropReasonIsNoPortFound(packetDropped)
attr title "packets dropped (wrong port), count"
vector 159 Scenario.node[14].udp droppedPkBadChecksum:vector(count) ETV
attr interpolationmode none
attr recordingmode vector(count)
attr source packetDropReasonIsIncorrectlyReceived(packetDropped)
attr title "packets dropped (checksum error), count"
vector 160 Scenario.node[14].wlan[0].radio radioMode:vector ETV
attr interpolationmode sample-hold
attr recordingmode vector
attr source radioModeChanged
attr title "Radio mode"
vector 161 Scenario.node[14].wlan[0].radio radioChannel:vector ETV
attr interpolationmode sample-hold
attr recordingmode vector
attr source radioChannelChanged
attr title "Radio channel"
vector 162 Scenario.node[14].wlan[0].radio receptionState:vector ETV
attr interpolationmode sample-hold
attr recordingmode vector
attr source receptionStateChanged
attr title "Radio reception state"
vector 163 Scenario.node[14].wlan[0].mac.dcf.channelAccess.contention stateChanged:vector ETV
attr enum IDLE,DEFER,IFS_AND_BACKOFF
attr interpolationmode none
attr recordingmode vector
attr title "contention state changed"
attr type enum
vector 164 Scenario.node[14].wlan[0].mac.dcf.recoveryProcedure contentionWindowChanged:vector ETV
attr interpolationmode sample-hold
attr recordingmode vector
attr title "contention window"
vector 165 Scenario.node[5].app[0] packetSent:vector(packetBytes) ETV
attr interpolationmode none
attr recordingmode vector(packetBytes)
attr source packetSent
attr title "packets sent, packetBytes"
vector 166 Scenario.node[5].udp packetSent:vector(packetBytes) ETV
attr interpolationmode none
attr recordingmode vector(packetBytes)
attr source packetSent
attr title "packets sent, packetBytes"
vector 167 Scenario.node[5].lo[0].lo rcvdPkFromHl:vector(packetBytes) ETV
attr interpolationmode none
attr recordingmode vector(packetBytes)
attr source packetReceivedFromUpper
attr title "packets received from higher layer, packetBytes"
vector 168 Scenario.node[5].lo[0].lo passedUpPk:vector(packetBytes) ETV
attr interpolationmode none
attr recordingmode vector(packetBytes)
attr source packetSentToUpper
attr title "packets passed to higher layer, packetBytes"
vector 169 Scenario.node[5].wlan[0].mac packetReceivedFromUpper:vector(packetBytes) ETV
attr interpolationmode none
attr recordingmode vector(packetBytes)
attr title "packets received from upper layer, packetBytes"
vector 170 Scenario.node[5].wlan[0].mac.dcf.channelAccess.pendingQueue incomingPacketLengths:vector ETV
attr interpolationmode none
attr recordingmode vector
attr source packetLength(packetPushStarted)
attr title "incoming packet lengths"
attr unit b
vector 171 Scenario.node[5].wlan[0].mac.dcf.channelAccess.pendingQueue incomingDataRate:vector ETV
attr interpolationmode linear
attr recordingmode vector
attr source throughput(packetPushStarted)
attr title "incoming datarate"
attr unit bps
vector 172 Scenario.node[5].wlan[0].mac.dcf.channelAccess.pendingQueue queueLength:vector ETV
attr autoWarmupFilter false
attr interpolationmode sample-hold
attr recordingmode vector
attr source "warmup(atomic(constant0(packetPushEnded) + count(packetPushStarted) - count(packetPulled) - count(packetRemoved) - count(packetDropped)))"
attr title "queue length"
attr unit pk
vector 173 Scenario.node[5].wlan[0].mac.dcf.channelAccess.pendingQueue queueBitLength:vector ETV
attr autoWarmupFilter false
attr interpolationmode sample-hold
attr recordingmode vector
attr source "warmup(atomic(constant0(packetPushEnded) + sum(packetLength(packetPushStarted)) - sum(packetLength(packetPulled)) - sum(packetLength(packetRemoved)) - sum(packetLength(packetDropped))))"
attr title "queue bit length"
attr unit b
vector 174 Scenario.node[5].wlan[0].mac.dcf.channelAccess.contention backoffPeriodGenerated:vector ETV
attr interpolationmode none
attr recordingmode vector
attr title "backoff periods"
vector 175 Scenario.node[5].udp packetReceived:vector(packetBytes) ETV
attr interpolationmode none
attr recordingmode vector(packetBytes)
attr source packetReceived
attr title "packets received, packetBytes"
vector 176 Scenario.node[5].app[0] packetReceived:vector(packetBytes) ETV
attr interpolationmode none
attr recordingmode vector(packetBytes)
attr source packetReceived
attr title "packets received, packetBytes"
vector 177 Scenario.node[5].app[0] throughput:vector ETV
attr recordingmode vector
attr source throughput(packetReceived)
attr title throughput
attr unit bps
vector 178 Scenario.node[5].app[0] rcvdPkLifetime:vector ETV
attr interpolationmode none
attr recordingmode vector
attr source dataAge(packetReceived)
attr title "received packet lifetime"
attr unit s
vector 179 Scenario.node[5].wlan[0].mac.dcf.channelAccess.pendingQueue queueingTime:vector ETV
attr interpolationmode none
attr recordingmode vector
attr source queueingTime(packetPulled)
attr title "queueing times"
attr unit s
vector 180 Scenario.node[5].wlan[0].mac.dcf.channelAccess.pendingQueue outgoingPacketLengths:vector ETV
attr interpolationmode none
attr recordingmode vector
attr source packetLength(packetPulled)
attr title "outgoing packet lengths"
attr unit b
vector 181 Scenario.node[5].wlan[0].mac.dcf.channelAccess.pendingQueue outgoingDataRate:vector ETV
attr interpolationmode linear
attr recordingmode vector
attr source throughput(packetPulled)
attr title "outgoing datarate"
attr unit bps
vector 182 Scenario.node[5].wlan[0].mac.dcf datarateSelected:vector ETV
attr interpolationmode none
attr recordingmode vector
attr title "datarates selected"
vector 183 Scenario.node[5].wlan[0].mac packetSentToLower:vector(packetBytes) ETV
attr interpolationmode none
attr recordingmode vector(packetBytes)
attr title "packets sent to lower layer, packetBytes"
vector 184 Scenario.node[5].wlan[0].radio transmissionState:vector ETV
attr interpolationmode sample-hold
attr recordingmode vector
attr source transmissionStateChanged
attr title "Radio transmission state"
vector 185 Scenario.node[5].wlan[0].mac.dcf packetSentToPeer:vector(packetBytes) ETV
attr interpolationmode none
attr recordingmode vector(packetBytes)
attr title "packets sent, packetBytes"
vector 186 Scenario.node[5].wlan[0].mac.dcf packetSentToPeerMulticast:vector(packetBytes) ETV
attr interpolationmode none
attr recordingmode vector(packetBytes)
attr source ieee80211Multicast(packetSentToPeer)
attr title "packets sent: multicast, packetBytes"
vector 187 Scenario.node[5].wlan[0].mac.dcf packetSentToPeerWithoutRetry:vector(packetBytes) ETV
attr interpolationmode none
attr recordingmode vector(packetBytes)
attr source ieee80211NotRetry(packetSentToPeer)
attr title "packets sent: without retry, packetBytes"
vector 188 Scenario.node[5].wlan[0].mac.dcf.channelAccess.inProgressFrames queueingTime:vector ETV
attr interpolationmode none
attr recordingmode vector
attr source queueingTime(packetDequeued)
attr title "queueing times"
vector 189 Scenario.node[6].wlan[0].mac packetReceivedFromLower:vector(packetBytes) ETV
attr interpolationmode none
attr recordingmode vector(packetBytes)
attr title "packets received from lower layer, packetBytes"
vector 190 Scenario.node[6].wlan[0].mac.dcf packetReceivedFromPeer:vector(packetBytes) ETV
attr interpolationmode none
attr recordingmode vector(packetBytes)
attr title "packets received, packetBytes"
vector 191 Scenario.node[6].wlan[0].mac.dcf packetReceivedFromPeerMulticast:vector(packetBytes) ETV
attr interpolationmode none
attr recordingmode vector(packetBytes)
attr source ieee80211Multicast(packetReceivedFromPeer)
attr title "packets received: multicast, packetBytes"
vector 192 Scenario.node[6].wlan[0].mac.dcf packetReceivedFromPeerWithoutRetry:vector(packetBytes) ETV
attr interpolationmode none
attr recordingmode vector(packetBytes)
attr source ieee80211NotRetry(packetReceivedFromPeer)
attr title "packets received: without retry, packetBytes"
vector 193 Scenario.node[6].wlan[0].mac packetSentToUpper:vector(packetBytes) ETV
attr interpolationmode none
attr recordingmode vector(packetBytes)
attr title "packets sent to upper layer, packetBytes"
vector 194 Scenario.node[6].udp packetReceived:vector(packetBytes) ETV
attr interpolationmode none
attr recordingmode vector(packetBytes)
attr source packetReceived
attr title "packets received, packetBytes"
vector 195 Scenario.node[6].app[0] packetReceived:vector(packetBytes) ETV
attr interpolationmode none
attr recordingmode vector(packetBytes)
attr source packetReceived
attr title "packets received, packetBytes"
vector 196 Scenario.node[6].app[0] throughput:vector ETV
attr recordingmode vector
attr source throughput(packetReceived)
attr title throughput
attr unit bps
vector 197 Scenario.node[6].app[0] rcvdPkLifetime:vector ETV
attr interpolationmode none
attr recordingmode vector
attr source dataAge(packetReceived)
attr title "received packet lifetime"
attr unit s
vector 198 Scenario.node[6].app[0] packetSent:vector(packetBytes) ETV
attr interpolationmode none
attr recordingmode vector(packetBytes)
attr source packetSent
attr title "packets sent, packetBytes"
vector 199 Scenario.node[6].udp packetSent:vector(packetBytes) ETV
attr interpolationmode none
attr recordingmode vector(packetBytes)
attr source packetSent
attr title "packets sent, packetBytes"
vector 200 Scenario.node[6].lo[0].lo rcvdPkFromHl:vector(packetBytes) ETV
attr interpolationmode none
attr recordingmode vector(packetBytes)
attr source packetReceivedFromUpper
attr title "packets received from higher layer, packetBytes"
vector 201 Scenario.node[6].lo[0].lo passedUpPk:vector(packetBytes) ETV
attr interpolationmode none
attr recordingmode vector(packetBytes)
attr source packetSentToUpper
attr title "packets passed to higher layer, packetBytes"
vector 202 Scenario.node[6].wlan[0].mac packetReceivedFromUpper:vector(packetBytes) ETV
attr interpolationmode none
attr recordingmode vector(packetBytes)
attr title "packets received from upper layer, packetBytes"
vector 203 Scenario.node[6].wlan[0].mac.dcf.channelAccess.pendingQueue incomingPacketLengths:vector ETV
attr interpolationmode none
attr recordingmode vector
attr source packetLength(packetPushStarted)
attr title "incoming packet lengths"
attr unit b
vector 204 Scenario.node[6].wlan[0].mac.dcf.channelAccess.pendingQueue incomingDataRate:vector ETV
attr interpolationmode linear
attr recordingmode vector
attr source throughput(packetPushStarted)
attr title "incoming datarate"
attr unit bps
vector 205 Scenario.node[6].wlan[0].mac.dcf.channelAccess.pendingQueue queueLength:vector ETV
attr autoWarmupFilter false
attr interpolationmode sample-hold
attr recordingmode vector
attr source "warmup(atomic(constant0(packetPushEnded) + count(packetPushStarted) - count(packetPulled) - count(packetRemoved) - count(packetDropped)))"
attr title "queue length"
attr unit pk
vector 206 Scenario.node[6].wlan[0].mac.dcf.channelAccess.pendingQueue queueBitLength:vector ETV
attr autoWarmupFilter false
attr interpolationmode sample-hold
attr recordingmode vector
attr source "warmup(atomic(constant0(packetPushEnded) + sum(packetLength(packetPushStarted)) - sum(packetLength(packetPulled)) - sum(packetLength(packetRemoved)) - sum(packetLength(packetDropped))))"
attr title "queue bit length"
attr unit b
vector 207 Scenario.node[6].wlan[0].mac.dcf.channelAccess.contention backoffPeriodGenerated:vector ETV
attr interpolationmode none
attr recordingmode vector
attr title "backoff periods"
vector 208 Scenario.node[14].wlan[0].mac packetReceivedFromLower:vector(packetBytes) ETV
attr interpolationmode none
attr recordingmode vector(packetBytes)
attr title "packets received from lower layer, packetBytes"
vector 209 Scenario.node[14].wlan[0].mac.dcf packetReceivedFromPeer:vector(packetBytes) ETV
attr interpolationmode none
attr recordingmode vector(packetBytes)
attr title "packets received, packetBytes"
vector 210 Scenario.node[14].wlan[0].mac.dcf packetReceivedFromPeerMulticast:vector(packetBytes) ETV
attr interpolationmode none
attr recordingmode vector(packetBytes)
attr source ieee80211Multicast(packetReceivedFromPeer)
attr title "packets received: multicast, packetBytes"
vector 211 Scenario.node[14].wlan[0].mac.dcf packetReceivedFromPeerWithoutRetry:vector(packetBytes) ETV
attr interpolationmode none
attr recordingmode vector(packetBytes)
attr source ieee80211NotRetry(packetReceivedFromPeer)
attr title "packets received: without retry, packetBytes"
vector 212 Scenario.node[14].wlan[0].mac packetSentToUpper:vector(packetBytes) ETV
attr interpolationmode none
attr recordingmode vector(packetBytes)
attr title "packets sent to upper layer, packetBytes"
vector 213 Scenario.node[14].udp packetReceived:vector(packetBytes) ETV
attr interpolationmode none
attr recordingmode vector(packetBytes)
attr source packetReceived
attr title "packets received, packetBytes"
vector 214 Scenario.node[14].app[0] packetReceived:vector(packetBytes) ETV
attr interpolationmode none
attr recordingmode vector(packetBytes)
attr source packetReceived
attr title "packets received, packetBytes"
vector 215 Scenario.node[14].app[0] throughput:vector ETV
attr recordingmode vector
attr source throughput(packetReceived)
attr title throughput
attr unit bps
vector 216 Scenario.node[14].app[0] rcvdPkLifetime:vector ETV
attr interpolationmode none
attr recordingmode vector
attr source dataAge(packetReceived)
attr title "received packet lifetime"
attr unit s
vector 217 Scenario.node[14].app[0] packetSent:vector(packetBytes) ETV
attr interpolationmode none
attr recordingmode vector(packetBytes)
attr source packetSent
attr title "packets sent, packetBytes"
vector 218 Scenario.node[14].udp packetSent:vector(packetBytes) ETV
attr interpolationmode none
attr recordingmode vector(packetBytes)
attr source packetSent
attr title "packets sent, packetBytes"
vector 219 Scenario.node[14].lo[0].lo rcvdPkFromHl:vector(packetBytes) ETV
attr interpolationmode none
attr recordingmode vector(packetBytes)
attr source packetReceivedFromUpper
attr title "packets received from higher layer, packetBytes"
vector 220 Scenario.node[14].lo[0].lo passedUpPk:vector(packetBytes) ETV
attr interpolationmode none
attr recordingmode vector(packetBytes)
attr source packetSentToUpper
attr title "packets passed to higher layer, packetBytes"
vector 221 Scenario.node[14].wlan[0].mac packetReceivedFromUpper:vector(packetBytes) ETV
attr interpolationmode none
attr recordingmode vector(packetBytes)
attr title "packets received from upper layer, packetBytes"
vector 222 Scenario.node[14].wlan[0].mac.dcf.channelAccess.pendingQueue incomingPacketLengths:vector ETV
attr interpolationmode none
attr recordingmode vector
attr source packetLength(packetPushStarted)
attr title "incoming packet lengths"
attr unit b
vector 223 Scenario.node[14].wlan[0].mac.dcf.channelAccess.pendingQueue incomingDataRate:vector ETV
attr interpolationmode linear
attr recordingmode vector
attr source throughput(packetPushStarted)
attr title "incoming datarate"
attr unit bps
vector 224 Scenario.node[14].wlan[0].mac.dcf.channelAccess.pendingQueue queueLength:vector ETV
attr autoWarmupFilter false
attr interpolationmode sample-hold
attr recordingmode vector
attr source "warmup(atomic(constant0(packetPushEnded) + count(packetPushStarted) - count(packetPulled) - count(packetRemoved) - count(packetDropped)))"
attr title "queue length"
attr unit pk
vector 225 Scenario.node[14].wlan[0].mac.dcf.channelAccess.pendingQueue queueBitLength:vector ETV
attr autoWarmupFilter false
attr interpolationmode sample-hold
attr recordingmode vector
attr source "warmup(atomic(constant0(packetPushEnded) + sum(packetLength(packetPushStarted)) - sum(packetLength(packetPulled)) - sum(packetLength(packetRemoved)) - sum(packetLength(packetDropped))))"
attr title "queue bit length"
attr unit b
vector 226 Scenario.node[14].wlan[0].mac.dcf.channelAccess.contention backoffPeriodGenerated:vector ETV
attr interpolationmode none
attr recordingmode vector
attr title "backoff periods"
vector 227 Scenario.node[13].wlan[0].mac packetReceivedFromLower:vector(packetBytes) ETV
attr interpolationmode none
attr recordingmode vector(packetBytes)
attr title "packets received from lower layer, packetBytes"
vector 228 Scenario.node[13].wlan[0].mac.dcf packetReceivedFromPeer:vector(packetBytes) ETV
attr interpolationmode none
attr recordingmode vector(packetBytes)
attr title "packets received, packetBytes"
vector 229 Scenario.node[13].wlan[0].mac.dcf packetReceivedFromPeerMulticast:vector(packetBytes) ETV
attr interpolationmode none
attr recordingmode vector(packetBytes)
attr source ieee80211Multicast(packetReceivedFromPeer)
attr title "packets received: multicast, packetBytes"
vector 230 Scenario.node[13].wlan[0].mac.dcf packetReceivedFromPeerWithoutRetry:vector(packetBytes) ETV
attr interpolationmode none
attr recordingmode vector(packetBytes)
attr source ieee80211NotRetry(packetReceivedFromPeer)
attr title "packets received: without retry, packetBytes"
vector 231 Scenario.node[13].wlan[0].mac packetSentToUpper:vector(packetBytes) ETV
attr interpolationmode none
attr recordingmode vector(packetBytes)
attr title "packets sent to upper layer, packetBytes"
vector 232 Scenario.node[13].udp packetReceived:vector(packetBytes) ETV
attr interpolationmode none
attr recordingmode vector(packetBytes)
attr source packetReceived
attr title "packets received, packetBytes"
vector 233 Scenario.node[13].app[0] packetReceived:vector(packetBytes) ETV
attr interpolationmode none
attr recordingmode vector(packetBytes)
attr source packetReceived
attr title "packets received, packetBytes"
vector 234 Scenario.node[13].app[0] throughput:vector ETV
attr recordingmode vector
attr source throughput(packetReceived)
attr title throughput
attr unit bps
vector 235 Scenario.node[13].app[0] rcvdPkLifetime:vector ETV
attr interpolationmode none
attr recordingmode vector
attr source dataAge(packetReceived)
attr title "received packet lifetime"
attr unit s
vector 236 Scenario.node[13].app[0] packetSent:vector(packetBytes) ETV
attr interpolationmode none
attr recordingmode vector(packetBytes)
attr source packetSent
attr title "packets sent, packetBytes"
vector 237 Scenario.node[13].udp packetSent:vector(packetBytes) ETV
attr interpolationmode none
attr recordingmode vector(packetBytes)
attr source packetSent
attr title "packets sent, packetBytes"
vector 238 Scenario.node[13].lo[0].lo rcvdPkFromHl:vector(packetBytes) ETV
attr interpolationmode none
attr recordingmode vector(packetBytes)
attr source packetReceivedFromUpper
attr title "packets received from higher layer, packetBytes"
vector 239 Scenario.node[13].lo[0].lo passedUpPk:vector(packetBytes) ETV
attr interpolationmode none
attr recordingmode vector(packetBytes)
attr source packetSentToUpper
attr title "packets passed to higher layer, packetBytes"
vector 240 Scenario.node[13].wlan[0].mac packetReceivedFromUpper:vector(packetBytes) ETV
attr interpolationmode none
attr recordingmode vector(packetBytes)
attr title "packets received from upper layer, packetBytes"
vector 241 Scenario.node[13].wlan[0].mac.dcf.channelAccess.pendingQueue incomingPacketLengths:vector ETV
attr interpolationmode none
attr recordingmode vector
attr source packetLength(packetPushStarted)
attr title "incoming packet lengths"
attr unit b
vector 242 Scenario.node[13].wlan[0].mac.dcf.channelAccess.pendingQueue incomingDataRate:vector ETV
attr interpolationmode linear
attr recordingmode vector
attr source throughput(packetPushStarted)
attr title "incoming datarate"
attr unit bps
vector 243 Scenario.node[13].wlan[0].mac.dcf.channelAccess.pendingQueue queueLength:vector ETV
attr autoWarmupFilter false
attr interpolationmode sample-hold
attr recordingmode vector
attr source "warmup(atomic(constant0(packetPushEnded) + count(packetPushStarted) - count(packetPulled) - count(packetRemoved) - count(packetDropped)))"
attr title "queue length"
attr unit pk
vector 244 Scenario.node[13].wlan[0].mac.dcf.channelAccess.pendingQueue queueBitLength:vector ETV
attr autoWarmupFilter false
attr interpolationmode sample-hold
attr recordingmode vector
attr source "warmup(atomic(constant0(packetPushEnded) + sum(packetLength(packetPushStarted)) - sum(packetLength(packetPulled)) - sum(packetLength(packetRemoved)) - sum(packetLength(packetDropped))))"
attr title "queue bit length"
attr unit b
vector 245 Scenario.node[13].wlan[0].mac.dcf.channelAccess.contention backoffPeriodGenerated:vector ETV
attr interpolationmode none
attr recordingmode vector
attr title "backoff periods"
vector 246 Scenario.node[6].wlan[0].mac.dcf.channelAccess.pendingQueue queueingTime:vector ETV
attr interpolationmode none
attr recordingmode vector
attr source queueingTime(packetPulled)
attr title "queueing times"
attr unit s
vector 247 Scenario.node[6].wlan[0].mac.dcf.channelAccess.pendingQueue outgoingPacketLengths:vector ETV
attr interpolationmode none
attr recordingmode vector
attr source packetLength(packetPulled)
attr title "outgoing packet lengths"
attr unit b
vector 248 Scenario.node[6].wlan[0].mac.dcf.channelAccess.pendingQueue outgoingDataRate:vector ETV
attr interpolationmode linear
attr recordingmode vector
attr source throughput(packetPulled)
attr title "outgoing datarate"
attr unit bps
vector 249 Scenario.node[6].wlan[0].mac.dcf datarateSelected:vector ETV
attr interpolationmode none
attr recordingmode vector
attr title "datarates selected"
vector 250 Scenario.node[6].wlan[0].mac packetSentToLower:vector(packetBytes) ETV
attr interpolationmode none
attr recordingmode vector(packetBytes)
attr title "packets sent to lower layer, packetBytes"
vector 251 Scenario.node[6].wlan[0].radio transmissionState:vector ETV
attr interpolationmode sample-hold
attr recordingmode vector
attr source transmissionStateChanged
attr title "Radio transmission state"
vector 252 Scenario.node[14].wlan[0].mac.dcf.channelAccess.pendingQueue queueingTime:vector ETV
attr interpolationmode none
attr recordingmode vector
attr source queueingTime(packetPulled)
attr title "queueing times"
attr unit s
vector 253 Scenario.node[14].wlan[0].mac.dcf.channelAccess.pendingQueue outgoingPacketLengths:vector ETV
attr interpolationmode none
attr recordingmode vector
attr source packetLength(packetPulled)
attr title "outgoing packet lengths"
attr unit b
vector 254 Scenario.node[14].wlan[0].mac.dcf.channelAccess.pendingQueue outgoingDataRate:vector ETV
attr interpolationmode linear
attr recordingmode vector
attr source throughput(packetPulled)
attr title "outgoing datarate"
attr unit bps
vector 255 Scenario.node[14].wlan[0].mac.dcf datarateSelected:vector ETV
attr interpolationmode none
attr recordingmode vector
attr title "datarates selected"
vector 256 Scenario.node[14].wlan[0].mac packetSentToLower:vector(packetBytes) ETV
attr interpolationmode none
attr recordingmode vector(packetBytes)
attr title "packets sent to lower layer, packetBytes"
vector 257 Scenario.node[14].wlan[0].radio transmissionState:vector ETV
attr interpolationmode sample-hold
attr recordingmode vector
attr source transmissionStateChanged
attr title "Radio transmission state"
vector 258 Scenario.node[6].wlan[0].mac.dcf packetSentToPeer:vector(packetBytes) ETV
attr interpolationmode none
attr recordingmode vector(packetBytes)
attr title "packets sent, packetBytes"
vector 259 Scenario.node[6].wlan[0].mac.dcf packetSentToPeerMulticast:vector(packetBytes) ETV
attr interpolationmode none
attr recordingmode vector(packetBytes)
attr source ieee80211Multicast(packetSentToPeer)
attr title "packets sent: multicast, packetBytes"
vector 260 Scenario.node[6].wlan[0].mac.dcf packetSentToPeerWithoutRetry:vector(packetBytes) ETV
attr interpolationmode none
attr recordingmode vector(packetBytes)
attr source ieee80211NotRetry(packetSentToPeer)
attr title "packets sent: without retry, packetBytes"
vector 261 Scenario.node[6].wlan[0].mac.dcf.channelAccess.inProgressFrames queueingTime:vector ETV
attr interpolationmode none
attr recordingmode vector
attr source queueingTime(packetDequeued)
attr title "queueing times"
vector 262 Scenario.node[5].wlan[0].mac packetReceivedFromLower:vector(packetBytes) ETV
attr interpolationmode none
attr recordingmode vector(packetBytes)
attr title "packets received from lower layer, packetBytes"
vector 263 Scenario.node[5].wlan[0].mac.dcf packetReceivedFromPeer:vector(packetBytes) ETV
attr interpolationmode none
attr recordingmode vector(packetBytes)
attr title "packets received, packetBytes"
vector 264 Scenario.node[5].wlan[0].mac.dcf packetReceivedFromPeerMulticast:vector(packetBytes) ETV
attr interpolationmode none
attr recordingmode vector(packetBytes)
attr source ieee80211Multicast(packetReceivedFromPeer)
attr title "packets received: multicast, packetBytes"
vector 265 Scenario.node[5].wlan[0].mac.dcf packetReceivedFromPeerWithoutRetry:vector(packetBytes) ETV
attr interpolationmode none
attr recordingmode vector(packetBytes)
attr source ieee80211NotRetry(packetReceivedFromPeer)
attr title "packets received: without retry, packetBytes"
vector 266 Scenario.node[5].wlan[0].mac packetSentToUpper:vector(packetBytes) ETV
attr interpolationmode none
attr recordingmode vector(packetBytes)
attr title "packets sent to upper layer, packetBytes"
vector 267 Scenario.node[14].wlan[0].mac.dcf packetSentToPeer:vector(packetBytes) ETV
attr interpolationmode none
attr recordingmode vector(packetBytes)
attr title "packets sent, packetBytes"
vector 268 Scenario.node[14].wlan[0].mac.dcf packetSentToPeerMulticast:vector(packetBytes) ETV
attr interpolationmode none
attr recordingmode vector(packetBytes)
attr source ieee80211Multicast(packetSentToPeer)
attr title "packets sent: multicast, packetBytes"
vector 269 Scenario.node[14].wlan[0].mac.dcf packetSentToPeerWithoutRetry:vector(packetBytes) ETV
attr interpolationmode none
attr recordingmode vector(packetBytes)
attr source ieee80211NotRetry(packetSentToPeer)
attr title "packets sent: without retry, packetBytes"
vector 270 Scenario.node[14].wlan[0].mac.dcf.channelAccess.inProgressFrames queueingTime:vector ETV
attr interpolationmode none
attr recordingmode vector
attr source queueingTime(packetDequeued)
attr title "queueing times"
vector 271 Scenario.node[13].wlan[0].mac packetDrop:vector(packetBytes) ETV
attr interpolationmode none
attr recordingmode vector(packetBytes)
attr source packetDropped
attr title "packet drops, packetBytes"
vector 272 Scenario.node[13].wlan[0].mac packetDropIncorrectlyReceived:vector(packetBytes) ETV
attr interpolationmode none
attr recordingmode vector(packetBytes)
attr source packetDropReasonIsIncorrectlyReceived(packetDropped)
attr title "packet drops: incorrectly received, packetBytes"
vector 273 Scenario.node[10].wlan[0].mac packetReceivedFromLower:vector(packetBytes) ETV
attr interpolationmode none
attr recordingmode vector(packetBytes)
attr title "packets received from lower layer, packetBytes"
vector 274 Scenario.node[10].wlan[0].mac.dcf packetReceivedFromPeer:vector(packetBytes) ETV
attr interpolationmode none
attr recordingmode vector(packetBytes)
attr title "packets received, packetBytes"
vector 275 Scenario.node[10].wlan[0].mac.dcf packetReceivedFromPeerMulticast:vector(packetBytes) ETV
attr interpolationmode none
attr recordingmode vector(packetBytes)
attr source ieee80211Multicast(packetReceivedFromPeer)
attr title "packets received: multicast, packetBytes"
vector 276 Scenario.node[10].wlan[0].mac.dcf packetReceivedFromPeerWithoutRetry:vector(packetBytes) ETV
attr interpolationmode none
attr recordingmode vector(packetBytes)
attr source ieee80211NotRetry(packetReceivedFromPeer)
attr title "packets received: without retry, packetBytes"
vector 277 Scenario.node[10].wlan[0].mac packetSentToUpper:vector(packetBytes) ETV
attr interpolationmode none
attr recordingmode vector(packetBytes)
attr title "packets sent to upper layer, packetBytes"
vector 278 Scenario.node[10].udp packetReceived:vector(packetBytes) ETV
attr interpolationmode none
attr recordingmode vector(packetBytes)
attr source packetReceived
attr title "packets received, packetBytes"
vector 279 Scenario.node[10].app[0] packetReceived:vector(packetBytes) ETV
attr interpolationmode none
attr recordingmode vector(packetBytes)
attr source packetReceived
attr title "packets received, packetBytes"
vector 280 Scenario.node[10].app[0] throughput:vector ETV
attr recordingmode vector
attr source throughput(packetReceived)
attr title throughput
attr unit bps
vector 281 Scenario.node[10].app[0] rcvdPkLifetime:vector ETV
attr interpolationmode none
attr recordingmode vector
attr source dataAge(packetReceived)
attr title "received packet lifetime"
attr unit s
vector 282 Scenario.node[10].app[0] packetSent:vector(packetBytes) ETV
attr interpolationmode none
attr recordingmode vector(packetBytes)
attr source packetSent
attr title "packets sent, packetBytes"
vector 283 Scenario.node[10].udp packetSent:vector(packetBytes) ETV
attr interpolationmode none
attr recordingmode vector(packetBytes)
attr source packetSent
attr title "packets sent, packetBytes"
vector 284 Scenario.node[10].lo[0].lo rcvdPkFromHl:vector(packetBytes) ETV
attr interpolationmode none
attr recordingmode vector(packetBytes)
attr source packetReceivedFromUpper
attr title "packets received from higher layer, packetBytes"
vector 285 Scenario.node[10].lo[0].lo passedUpPk:vector(packetBytes) ETV
attr interpolationmode none
attr recordingmode vector(packetBytes)
attr source packetSentToUpper
attr title "packets passed to higher layer, packetBytes"
vector 286 Scenario.node[10].wlan[0].mac packetReceivedFromUpper:vector(packetBytes) ETV
attr interpolationmode none
attr recordingmode vector(packetBytes)
attr title "packets received from upper layer, packetBytes"
vector 287 Scenario.node[10].wlan[0].mac.dcf.channelAccess.pendingQueue incomingPacketLengths:vector ETV
attr interpolationmode none
attr recordingmode vector
attr source packetLength(packetPushStarted)
attr title "incoming packet lengths"
attr unit b
vector 288 Scenario.node[10].wlan[0].mac.dcf.channelAccess.pendingQueue incomingDataRate:vector ETV
attr interpolationmode linear
attr recordingmode vector
attr source throughput(packetPushStarted)
attr title "incoming datarate"
attr unit bps
vector 289 Scenario.node[10].wlan[0].mac.dcf.channelAccess.pendingQueue queueLength:vector ETV
attr autoWarmupFilter false
attr interpolationmode sample-hold
attr recordingmode vector
attr source "warmup(atomic(constant0(packetPushEnded) + count(packetPushStarted) - count(packetPulled) - count(packetRemoved) - count(packetDropped)))"
attr title "queue length"
attr unit pk
vector 290 Scenario.node[10].wlan[0].mac.dcf.channelAccess.pendingQueue queueBitLength:vector ETV
attr autoWarmupFilter false
attr interpolationmode sample-hold
attr recordingmode vector
attr source "warmup(atomic(constant0(packetPushEnded) + sum(packetLength(packetPushStarted)) - sum(packetLength(packetPulled)) - sum(packetLength(packetRemoved)) - sum(packetLength(packetDropped))))"
attr title "queue bit length"
attr unit b
vector 291 Scenario.node[10].wlan[0].mac.dcf.channelAccess.contention backoffPeriodGenerated:vector ETV
attr interpolationmode none
attr recordingmode vector
attr title "backoff periods"
vector 292 Scenario.node[12].wlan[0].mac packetReceivedFromLower:vector(packetBytes) ETV
attr interpolationmode none
attr recordingmode vector(packetBytes)
attr title "packets received from lower layer, packetBytes"
vector 293 Scenario.node[12].wlan[0].mac.dcf packetReceivedFromPeer:vector(packetBytes) ETV
attr interpolationmode none
attr recordingmode vector(packetBytes)
attr title "packets received, packetBytes"
vector 294 Scenario.node[12].wlan[0].mac.dcf packetReceivedFromPeerMulticast:vector(packetBytes) ETV
attr interpolationmode none
attr recordingmode vector(packetBytes)
attr source ieee80211Multicast(packetReceivedFromPeer)
attr title "packets received: multicast, packetBytes"
vector 295 Scenario.node[12].wlan[0].mac.dcf packetReceivedFromPeerWithoutRetry:vector(packetBytes) ETV
attr interpolationmode none
attr recordingmode vector(packetBytes)
attr source ieee80211NotRetry(packetReceivedFromPeer)
attr title "packets received: without retry, packetBytes"
vector 296 Scenario.node[12].wlan[0].mac packetSentToUpper:vector(packetBytes) ETV
attr interpolationmode none
attr recordingmode vector(packetBytes)
attr title "packets sent to upper layer, packetBytes"
vector 297 Scenario.node[12].udp packetReceived:vector(packetBytes) ETV
attr interpolationmode none
attr recordingmode vector(packetBytes)
attr source packetReceived
attr title "packets received, packetBytes"
vector 298 Scenario.node[12].app[0] packetReceived:vector(packetBytes) ETV
attr interpolationmode none
attr recordingmode vector(packetBytes)
attr source packetReceived
attr title "packets received, packetBytes"
vector 299 Scenario.node[12].app[0] throughput:vector ETV
attr recordingmode vector
attr source throughput(packetReceived)
attr title throughput
attr unit bps
vector 300 Scenario.node[12].app[0] rcvdPkLifetime:vector ETV
attr interpolationmode none
attr recordingmode vector
attr source dataAge(packetReceived)
attr title "received packet lifetime"
attr unit s
vector 301 Scenario.node[12].app[0] packetSent:vector(packetBytes) ETV
attr interpolationmode none
attr recordingmode vector(packetBytes)
attr source packetSent
attr title "packets sent, packetBytes"
vector 302 Scenario.node[12].udp packetSent:vector(packetBytes) ETV
attr interpolationmode none
attr recordingmode vector(packetBytes)
attr source packetSent
attr title "packets sent, packetBytes"
vector 303 Scenario.node[12].lo[0].lo rcvdPkFromHl:vector(packetBytes) ETV
attr interpolationmode none
attr recordingmode vector(packetBytes)
attr source packetReceivedFromUpper
attr title "packets received from higher layer, packetBytes"
vector 304 Scenario.node[12].lo[0].lo passedUpPk:vector(packetBytes) ETV
attr interpolationmode none
attr recordingmode vector(packetBytes)
attr source packetSentToUpper
attr title "packets passed to higher layer, packetBytes"
vector 305 Scenario.node[12].wlan[0].mac packetReceivedFromUpper:vector(packetBytes) ETV
[...]
4412	6691809 57 29983 29983 230.1 230.1 3 0 2 2 4
4413	6691866 19 29983 29983 230.1 230.1 1 3 3 3 9
4414	6691885 19 29983 29983 230.1 230.1 1 1 1 1 1
4415	6691904 38 29983 29983 230.1 230.1 2 0 0 0 0
4416	6691942 20 29983 29983 230.1 230.1 1 15 15 15 225
4439	6691962 38 30133 30133 232.7 232.7 2 0 0 0 0
4440	6692000 38 30133 30133 232.7 232.7 2 0 0 0 0
4441	6692038 38 30133 30133 232.7 232.7 2 0 0 0 0
4442	6692076 19 30133 30133 232.7 232.7 1 0 0 0 0
4443	6692095 19 30133 30133 232.7 232.7 1 0 0 0 0
4444	6692114 19 30133 30133 232.7 232.7 1 0 0 0 0
4445	6692133 57 30133 30133 232.7 232.7 3 0 2 2 4
4446	6692190 19 30133 30133 232.7 232.7 1 3 3 3 9
4447	6692209 19 30133 30133 232.7 232.7 1 1 1 1 1
4448	6692228 38 30133 30133 232.7 232.7 2 0 0 0 0
4449	6692266 20 30133 30133 232.7 232.7 1 15 15 15 225
4472	6692286 38 30565 30565 240.1 240.1 2 0 0 0 0
4473	6692324 38 30565 30565 240.1 240.1 2 0 0 0 0
4474	6692362 38 30565 30565 240.1 240.1 2 0 0 0 0
4475	6692400 19 30565 30565 240.1 240.1 1 0 0 0 0
4476	6692419 19 30565 30565 240.1 240.1 1 0 0 0 0
4477	6692438 19 30565 30565 240.1 240.1 1 0 0 0 0
4478	6692457 57 30565 30565 240.1 240.1 3 0 2 2 4
4479	6692514 19 30565 30565 240.1 240.1 1 3 3 3 9
4480	6692533 19 30565 30565 240.1 240.1 1 1 1 1 1
4481	6692552 38 30565 30565 240.1 240.1 2 0 0 0 0
4482	6692590 20 30565 30565 240.1 240.1 1 15 15 15 225
4494	6692610 38 30582 30582 240.2 240.2 2 0 0 0 0
4495	6692648 38 30582 30582 240.2 240.2 2 0 0 0 0
4496	6692686 38 30582 30582 240.2 240.2 2 0 0 0 0
4497	6692724 19 30582 30582 240.2 240.2 1 0 0 0 0
4498	6692743 19 30582 30582 240.2 240.2 1 0 0 0 0
4499	6692762 19 30582 30582 240.2 240.2 1 0 0 0 0
4500	6692781 57 30582 30582 240.2 240.2 3 0 2 2 4
4501	6692838 19 30582 30582 240.2 240.2 1 3 3 3 9
4502	6692857 19 30582 30582 240.2 240.2 1 1 1 1 1
4503	6692876 38 30582 30582 240.2 240.2 2 0 0 0 0
4504	6692914 20 30582 30582 240.2 240.2 1 15 15 15 225
4516	6692934 38 31073 31073 250.1 250.1 2 0 0 0 0
4517	6692972 38 31073 31073 250.1 250.1 2 0 0 0 0
4518	6693010 38 31073 31073 250.1 250.1 2 0 0 0 0
4519	6693048 19 31073 31073 250.1 250.1 1 0 0 0 0
4520	6693067 19 31073 31073 250.1 250.1 1 0 0 0 0
4521	6693086 19 31073 31073 250.1 250.1 1 0 0 0 0
4522	6693105 57 31073 31073 250.1 250.1 3 0 2 2 4
4523	6693162 19 31073 31073 250.1 250.1 1 3 3 3 9
4524	6693181 19 31073 31073 250.1 250.1 1 1 1 1 1
4525	6693200 38 31073 31073 250.1 250.1 2 0 0 0 0
4526	6693238 20 31073 31073 250.1 250.1 1 15 15 15 225
4527	6693258 38 31073 31073 250.1 250.1 2 0 0 0 0
4528	6693296 38 31073 31073 250.1 250.1 2 0 0 0 0
4529	6693334 38 31073 31073 250.1 250.1 2 0 0 0 0
4530	6693372 19 31073 31073 250.1 250.1 1 0 0 0 0
4531	6693391 19 31073 31073 250.1 250.1 1 0 0 0 0
4532	6693410 19 31073 31073 250.1 250.1 1 0 0 0 0
4533	6693429 57 31073 31073 250.1 250.1 3 0 2 2 4
4534	6693486 19 31073 31073 250.1 250.1 1 3 3 3 9
4535	6693505 19 31073 31073 250.1 250.1 1 1 1 1 1
4536	6693524 38 31073 31073 250.1 250.1 2 0 0 0 0
4537	6693562 20 31073 31073 250.1 250.1 1 15 15 15 225
4538	6693582 38 31073 31073 250.1 250.1 2 0 0 0 0
4539	6693620 38 31073 31073 250.1 250.1 2 0 0 0 0
4540	6693658 38 31073 31073 250.1 250.1 2 0 0 0 0
4541	6693696 19 31073 31073 250.1 250.1 1 0 0 0 0
4542	6693715 19 31073 31073 250.1 250.1 1 0 0 0 0
4543	6693734 19 31073 31073 250.1 250.1 1 0 0 0 0
4544	6693753 57 31073 31073 250.1 250.1 3 0 2 2 4
4545	6693810 19 31073 31073 250.1 250.1 1 3 3 3 9
4546	6693829 19 31073 31073 250.1 250.1 1 1 1 1 1
4547	6693848 38 31073 31073 250.1 250.1 2 0 0 0 0
4548	6693886 20 31073 31073 250.1 250.1 1 15 15 15 225
4560	6693906 38 31210 31210 252.8 252.8 2 0 0 0 0
4561	6693944 38 31210 31210 252.8 252.8 2 0 0 0 0
4562	6693982 38 31210 31210 252.8 252.8 2 0 0 0 0
4563	6694020 19 31210 31210 252.8 252.8 1 0 0 0 0
4564	6694039 19 31210 31210 252.8 252.8 1 0 0 0 0
4565	6694058 19 31210 31210 252.8 252.8 1 0 0 0 0
4566	6694077 57 31210 31210 252.8 252.8 3 0 2 2 4
4567	6694134 19 31210 31210 252.8 252.8 1 3 3 3 9
4568	6694153 19 31210 31210 252.8 252.8 1 1 1 1 1
4569	6694172 38 31210 31210 252.8 252.8 2 0 0 0 0
4570	6694210 20 31210 31210 252.8 252.8 1 15 15 15 225
4591	6694230 38 31579 31579 260.1 260.1 2 0 0 0 0
4592	6694268 38 31579 31579 260.1 260.1 2 0 0 0 0
4593	6694306 38 31579 31579 260.1 260.1 2 0 0 0 0
4594	6694344 19 31579 31579 260.1 260.1 1 0 0 0 0
4595	6694363 19 31579 31579 260.1 260.1 1 0 0 0 0
4596	6694382 19 31579 31579 260.1 260.1 1 0 0 0 0
4597	6694401 57 31579 31579 260.1 260.1 3 0 2 2 4
4598	6694458 19 31579 31579 260.1 260.1 1 3 3 3 9
4599	6694477 19 31579 31579 260.1 260.1 1 1 1 1 1
4600	6694496 38 31579 31579 260.1 260.1 2 0 0 0 0
4601	6694534 20 31579 31579 260.1 260.1 1 15 15 15 225
4602	6694554 38 31595 31595 260.2 260.2 2 0 0 0 0
4603	6694592 38 31595 31595 260.2 260.2 2 0 0 0 0
4604	6694630 38 31595 31595 260.2 260.2 2 0 0 0 0
4605	6694668 19 31595 31595 260.2 260.2 1 0 0 0 0
4606	6694687 19 31595 31595 260.2 260.2 1 0 0 0 0
4607	6694706 19 31595 31595 260.2 260.2 1 0 0 0 0
4608	6694725 57 31595 31595 260.2 260.2 3 0 2 2 4
4609	6694782 19 31595 31595 260.2 260.2 1 3 3 3 9
4610	6694801 19 31595 31595 260.2 260.2 1 1 1 1 1
4611	6694820 38 31595 31595 260.2 260.2 2 0 0 0 0
4612	6694858 20 31595 31595 260.2 260.2 1 15 15 15 225
4613	6694878 38 31595 31595 260.2 260.2 2 0 0 0 0
4614	6694916 38 31595 31595 260.2 260.2 2 0 0 0 0
4615	6694954 38 31595 31595 260.2 260.2 2 0 0 0 0
4616	6694992 19 31595 31595 260.2 260.2 1 0 0 0 0
4617	6695011 19 31595 31595 260.2 260.2 1 0 0 0 0
4618	6695030 19 31595 31595 260.2 260.2 1 0 0 0 0
4619	6695049 57 31595 31595 260.2 260.2 3 0 2 2 4
4620	6695106 19 31595 31595 260.2 260.2 1 3 3 3 9
4621	6695125 19 31595 31595 260.2 260.2 1 1 1 1 1
4622	6695144 38 31595 31595 260.2 260.2 2 0 0 0 0
4623	6695182 20 31595 31595 260.2 260.2 1 15 15 15 225
4624	6695202 38 32083 32083 270.1 270.1 2 0 0 0 0
4625	6695240 38 32083 32083 270.1 270.1 2 0 0 0 0
4626	6695278 38 32083 32083 270.1 270.1 2 0 0 0 0
4627	6695316 19 32083 32083 270.1 270.1 1 0 0 0 0
4628	6695335 19 32083 32083 270.1 270.1 1 0 0 0 0
4629	6695354 19 32083 32083 270.1 270.1 1 0 0 0 0
4630	6695373 57 32083 32083 270.1 270.1 3 0 2 2 4
4631	6695430 19 32083 32083 270.1 270.1 1 3 3 3 9
4632	6695449 19 32083 32083 270.1 270.1 1 1 1 1 1
4633	6695468 38 32083 32083 270.1 270.1 2 0 0 0 0
4634	6695506 20 32083 32083 270.1 270.1 1 15 15 15 225
4635	6695526 38 32083 32083 270.1 270.1 2 0 0 0 0
4636	6695564 38 32083 32083 270.1 270.1 2 0 0 0 0
4637	6695602 38 32083 32083 270.1 270.1 2 0 0 0 0
4638	6695640 19 32083 32083 270.1 270.1 1 0 0 0 0
4639	6695659 19 32083 32083 270.1 270.1 1 0 0 0 0
4640	6695678 19 32083 32083 270.1 270.1 1 0 0 0 0
4641	6695697 57 32083 32083 270.1 270.1 3 0 2 2 4
4642	6695754 19 32083 32083 270.1 270.1 1 3 3 3 9
4643	6695773 19 32083 32083 270.1 270.1 1 1 1 1 1
4644	6695792 38 32083 32083 270.1 270.1 2 0 0 0 0
4645	6695830 20 32083 32083 270.1 270.1 1 15 15 15 225
4646	6695850 38 32083 32083 270.1 270.1 2 0 0 0 0
4647	6695888 38 32083 32083 270.1 270.1 2 0 0 0 0
4648	6695926 38 32083 32083 270.1 270.1 2 0 0 0 0
4649	6695964 19 32083 32083 270.1 270.1 1 0 0 0 0
4650	6695983 19 32083 32083 270.1 270.1 1 0 0 0 0
4651	6696002 19 32083 32083 270.1 270.1 1 0 0 0 0
4652	6696021 57 32083 32083 270.1 270.1 3 0 2 2 4
4653	6696078 19 32083 32083 270.1 270.1 1 3 3 3 9
4654	6696097 19 32083 32083 270.1 270.1 1 1 1 1 1
4655	6696116 38 32083 32083 270.1 270.1 2 0 0 0 0
4656	6696154 20 32083 32083 270.1 270.1 1 15 15 15 225
4657	6696174 38 32083 32083 270.1 270.1 2 0 0 0 0
4658	6696212 38 32083 32083 270.1 270.1 2 0 0 0 0
4659	6696250 38 32083 32083 270.1 270.1 2 0 0 0 0
4660	6696288 19 32083 32083 270.1 270.1 1 0 0 0 0
4661	6696307 19 32083 32083 270.1 270.1 1 0 0 0 0
4662	6696326 19 32083 32083 270.1 270.1 1 0 0 0 0
4663	6696345 57 32083 32083 270.1 270.1 3 0 2 2 4
4664	6696402 19 32083 32083 270.1 270.1 1 3 3 3 9
4665	6696421 19 32083 32083 270.1 270.1 1 1 1 1 1
4666	6696440 38 32083 32083 270.1 270.1 2 0 0 0 0
4667	6696478 20 32083 32083 270.1 270.1 1 15 15 15 225
4668	6696498 38 32219 32219 272.7 272.7 2 0 0 0 0
4669	6696536 38 32219 32219 272.7 272.7 2 0 0 0 0
4670	6696574 38 32219 32219 272.7 272.7 2 0 0 0 0
4671	6696612 19 32219 32219 272.7 272.7 1 0 0 0 0
4672	6696631 19 32219 32219 272.7 272.7 1 0 0 0 0
4673	6696650 19 32219 32219 272.7 272.7 1 0 0 0 0
4674	6696669 57 32219 32219 272.7 272.7 3 0 2 2 4
4675	6696726 19 32219 32219 272.7 272.7 1 3 3 3 9
4676	6696745 19 32219 32219 272.7 272.7 1 1 1 1 1
4677	6696764 38 32219 32219 272.7 272.7 2 0 0 0 0
4678	6696802 20 32219 32219 272.7 272.7 1 15 15 15 225
4679	6696822 38 32219 32219 272.7 272.7 2 0 0 0 0
4680	6696860 38 32219 32219 272.7 272.7 2 0 0 0 0
4681	6696898 38 32219 32219 272.7 272.7 2 0 0 0 0
4682	6696936 19 32219 32219 272.7 272.7 1 0 0 0 0
4683	6696955 19 32219 32219 272.7 272.7 1 0 0 0 0
4684	6696974 19 32219 32219 272.7 272.7 1 0 0 0 0
4685	6696993 57 32219 32219 272.7 272.7 3 0 2 2 4
4686	6697050 19 32219 32219 272.7 272.7 1 3 3 3 9
4687	6697069 19 32219 32219 272.7 272.7 1 1 1 1 1
4688	6697088 38 32219 32219 272.7 272.7 2 0 0 0 0
4689	6697126 20 32219 32219 272.7 272.7 1 15 15 15 225
4693	6697146 38 32632 32632 280.1 280.1 2 0 0 0 0
4694	6697184 38 32632 32632 280.1 280.1 2 0 0 0 0
4695	6697222 38 32632 32632 280.1 280.1 2 0 0 0 0
4696	6697260 19 32632 32632 280.1 280.1 1 0 0 0 0
4697	6697279 19 32632 32632 280.1 280.1 1 0 0 0 0
4698	6697298 19 32632 32632 280.1 280.1 1 0 0 0 0
4699	6697317 57 32632 32632 280.1 280.1 3 0 2 2 4
4700	6697374 19 32632 32632 280.1 280.1 1 3 3 3 9
4701	6697393 19 32632 32632 280.1 280.1 1 1 1 1 1
4702	6697412 38 32632 32632 280.1 280.1 2 0 0 0 0
4703	6697450 20 32632 32632 280.1 280.1 1 15 15 15 225
4704	6697470 38 32632 32632 280.1 280.1 2 0 0 0 0
4705	6697508 38 32632 32632 280.1 280.1 2 0 0 0 0
4706	6697546 38 32632 32632 280.1 280.1 2 0 0 0 0
4707	6697584 19 32632 32632 280.1 280.1 1 0 0 0 0
4708	6697603 19 32632 32632 280.1 280.1 1 0 0 0 0
4709	6697622 19 32632 32632 280.1 280.1 1 0 0 0 0
4710	6697641 57 32632 32632 280.1 280.1 3 0 2 2 4
4711	6697698 19 32632 32632 280.1 280.1 1 3 3 3 9
4712	6697717 19 32632 32632 280.1 280.1 1 1 1 1 1
4713	6697736 38 32632 32632 280.1 280.1 2 0 0 0 0
4714	6697774 20 32632 32632 280.1 280.1 1 15 15 15 225
4715	6697794 38 32648 32648 280.2 280.2 2 0 0 0 0
4716	6697832 38 32648 32648 280.2 280.2 2 0 0 0 0
4717	6697870 38 32648 32648 280.2 280.2 2 0 0 0 0
4718	6697908 19 32648 32648 280.2 280.2 1 0 0 0 0
4719	6697927 19 32648 32648 280.2 280.2 1 0 0 0 0
4720	6697946 19 32648 32648 280.2 280.2 1 0 0 0 0
4721	6697965 57 32648 32648 280.2 280.2 3 0 2 2 4
4722	6698022 19 32648 32648 280.2 280.2 1 3 3 3 9
4723	6698041 19 32648 32648 280.2 280.2 1 1 1 1 1
4724	6698060 38 32648 32648 280.2 280.2 2 0 0 0 0
4725	6698098 20 32648 32648 280.2 280.2 1 15 15 15 225
4726	6698118 38 32648 32648 280.2 280.2 2 0 0 0 0
4727	6698156 38 32648 32648 280.2 280.2 2 0 0 0 0
4728	6698194 38 32648 32648 280.2 280.2 2 0 0 0 0
4729	6698232 19 32648 32648 280.2 280.2 1 0 0 0 0
4730	6698251 19 32648 32648 280.2 280.2 1 0 0 0 0
4731	6698270 19 32648 32648 280.2 280.2 1 0 0 0 0
4732	6698289 57 32648 32648 280.2 280.2 3 0 2 2 4
4733	6698346 19 32648 32648 280.2 280.2 1 3 3 3 9
4734	6698365 19 32648 32648 280.2 280.2 1 1 1 1 1
4735	6698384 38 32648 32648 280.2 280.2 2 0 0 0 0
4736	6698422 20 32648 32648 280.2 280.2 1 15 15 15 225
4743	6698442 38 33199 33199 290.1 290.1 2 0 0 0 0
4744	6698480 38 33199 33199 290.1 290.1 2 0 0 0 0
4745	6698518 38 33199 33199 290.1 290.1 2 0 0 0 0
4746	6698556 19 33199 33199 290.1 290.1 1 0 0 0 0
4747	6698575 19 33199 33199 290.1 290.1 1 0 0 0 0
4748	6698594 19 33199 33199 290.1 290.1 1 0 0 0 0
4749	6698613 57 33199 33199 290.1 290.1 3 0 2 2 4
4750	6698670 19 33199 33199 290.1 290.1 1 3 3 3 9
4751	6698689 19 33199 33199 290.1 290.1 1 1 1 1 1
4752	6698708 38 33199 33199 290.1 290.1 2 0 0 0 0
4753	6698746 20 33199 33199 290.1 290.1 1 15 15 15 225
4754	6698766 38 33199 33199 290.1 290.1 2 0 0 0 0
4755	6698804 38 33199 33199 290.1 290.1 2 0 0 0 0
4756	6698842 38 33199 33199 290.1 290.1 2 0 0 0 0
4757	6698880 19 33199 33199 290.1 290.1 1 0 0 0 0
4758	6698899 19 33199 33199 290.1 290.1 1 0 0 0 0
4759	6698918 19 33199 33199 290.1 290.1 1 0 0 0 0
4760	6698937 57 33199 33199 290.1 290.1 3 0 2 2 4
4761	6698994 19 33199 33199 290.1 290.1 1 3 3 3 9
4762	6699013 19 33199 33199 290.1 290.1 1 1 1 1 1
4763	6699032 38 33199 33199 290.1 290.1 2 0 0 0 0
4764	6699070 20 33199 33199 290.1 290.1 1 15 15 15 225
4765	6699090 38 33199 33199 290.1 290.1 2 0 0 0 0
4766	6699128 38 33199 33199 290.1 290.1 2 0 0 0 0
4767	6699166 38 33199 33199 290.1 290.1 2 0 0 0 0
4768	6699204 19 33199 33199 290.1 290.1 1 0 0 0 0
4769	6699223 19 33199 33199 290.1 290.1 1 0 0 0 0
4770	6699242 19 33199 33199 290.1 290.1 1 0 0 0 0
4771	6699261 57 33199 33199 290.1 290.1 3 0 2 2 4
4772	6699318 19 33199 33199 290.1 290.1 1 3 3 3 9
4773	6699337 19 33199 33199 290.1 290.1 1 1 1 1 1
4774	6699356 38 33199 33199 290.1 290.1 2 0 0 0 0
4775	6699394 20 33199 33199 290.1 290.1 1 15 15 15 225
4776	6699414 38 33199 33199 290.1 290.1 2 0 0 0 0
4777	6699452 38 33199 33199 290.1 290.1 2 0 0 0 0
4778	6699490 38 33199 33199 290.1 290.1 2 0 0 0 0
4779	6699528 19 33199 33199 290.1 290.1 1 0 0 0 0
4780	6699547 19 33199 33199 290.1 290.1 1 0 0 0 0
4781	6699566 19 33199 33199 290.1 290.1 1 0 0 0 0
4782	6699585 57 33199 33199 290.1 290.1 3 0 2 2 4
4783	6699642 19 33199 33199 290.1 290.1 1 3 3 3 9
4784	6699661 19 33199 33199 290.1 290.1 1 1 1 1 1
4785	6699680 38 33199 33199 290.1 290.1 2 0 0 0 0
4786	6699718 20 33199 33199 290.1 290.1 1 15 15 15 225
4796	6699738 38 33342 33342 292.7 292.7 2 0 0 0 0
4797	6699776 38 33342 33342 292.7 292.7 2 0 0 0 0
4798	6699814 38 33342 33342 292.7 292.7 2 0 0 0 0
4799	6699852 19 33342 33342 292.7 292.7 1 0 0 0 0
4800	6699871 19 33342 33342 292.7 292.7 1 0 0 0 0
4801	6699890 19 33342 33342 292.7 292.7 1 0 0 0 0
4802	6699909 57 33342 33342 292.7 292.7 3 0 2 2 4
4803	6699966 19 33342 33342 292.7 292.7 1 3 3 3 9
4804	6699985 19 33342 33342 292.7 292.7 1 1 1 1 1
4805	6700004 38 33342 33342 292.7 292.7 2 0 0 0 0
4806	6700042 20 33342 33342 292.7 292.7 1 15 15 15 225
4807	6700062 38 33348 33348 292.8 292.8 2 0 0 0 0
4808	6700100 38 33348 33348 292.8 292.8 2 0 0 0 0
4809	6700138 38 33348 33348 292.8 292.8 2 0 0 0 0
4810	6700176 19 33348 33348 292.8 292.8 1 0 0 0 0
4811	6700195 19 33348 33348 292.8 292.8 1 0 0 0 0
4812	6700214 19 33348 33348 292.8 292.8 1 0 0 0 0
4813	6700233 57 33348 33348 292.8 292.8 3 0 2 2 4
4814	6700290 19 33348 33348 292.8 292.8 1 3 3 3 9
4815	6700309 19 33348 33348 292.8 292.8 1 1 1 1 1
4816	6700328 38 33348 33348 292.8 292.8 2 0 0 0 0
4817	6700366 20 33348 33348 292.8 292.8 1 15 15 15 225
4836	6700386 55285 33697 33697 0.2 300 2999 0 0 0 0
4837	6755671 55285 33697 33697 0.2 300 2999 0 0 0 0
4838	6810956 55285 33697 33697 0.2 300 2999 0 0 0 0
4839	6866241 55268 33697 33697 0.3 300 2998 0 0 0 0
4840	6921509 55268 33697 33697 0.3 300 2998 0 0 0 0
4841	6976777 55268 33697 33697 0.3 300 2998 0 0 0 0
4842	7032045 55268 33697 33697 0.3 300 2998 0 0 0 0
4843	7087313 55268 33697 33697 0.3 300 2998 0 0 0 0
4844	7142581 55268 33697 33697 0.3 300 2998 0 0 0 0
4845	7197849 55268 33697 33697 0.3 300 2998 0 0 0 0
4846	7253117 55268 33697 33697 0.3 300 2998 0 0 0 0
4847	7308385 55268 33697 33697 0.3 300 2998 0 0 0 0
4848	7363653 55268 33697 33697 0.3 300 2998 0 0 0 0
4849	7418921 55268 33697 33697 0.3 300 2998 0 0 0 0
4850	7474189 55268 33697 33697 0.3 300 2998 0 0 0 0
4851	7529457 15021 33697 33697 220.2 300 799 0 0 0 0
4852	7544478 15021 33697 33697 220.2 300 799 0 0 0 0
4853	7559499 15021 33697 33697 220.2 300 799 0 0 0 0
4854	7574520 15002 33697 33697 220.3 300 798 0 0 0 0
4855	7589522 15002 33697 33697 220.3 300 798 0 0 0 0
4856	7604524 15002 33697 33697 220.3 300 798 0 0 0 0
4857	7619526 13141 33697 33697 230.2 300 699 0 0 0 0
4858	7632667 13141 33697 33697 230.2 300 699 0 0 0 0
4859	7645808 13141 33697 33697 230.2 300 699 0 0 0 0
4860	7658949 12651 33697 33697 232.8 300 673 0 0 0 0
4861	7671600 12651 33697 33697 232.8 300 673 0 0 0 0
4862	7684251 12651 33697 33697 232.8 300 673 0 0 0 0
4863	7696902 11261 33697 33697 240.2 300 599 0 0 0 0
4864	7708163 11261 33697 33697 240.2 300 599 0 0 0 0
4865	7719424 11261 33697 33697 240.2 300 599 0 0 0 0
4866	7730685 11242 33697 33697 240.3 300 598 0 0 0 0
4867	7741927 11242 33697 33697 240.3 300 598 0 0 0 0
4868	7753169 11242 33697 33697 240.3 300 598 0 0 0 0
4869	7764411 9381 33697 33697 250.2 300 499 0 0 0 0
4870	7773792 9381 33697 33697 250.2 300 499 0 0 0 0
4871	7783173 9381 33697 33697 250.2 300 499 0 0 0 0
4872	7792554 9381 33697 33697 250.2 300 499 0 0 0 0
4873	7801935 9381 33697 33697 250.2 300 499 0 0 0 0
4874	7811316 9381 33697 33697 250.2 300 499 0 0 0 0
4875	7820697 9381 33697 33697 250.2 300 499 0 0 0 0
4876	7830078 9381 33697 33697 250.2 300 499 0 0 0 0
4877	7839459 9381 33697 33697 250.2 300 499 0 0 0 0
4878	7848840 8872 33697 33697 252.9 300 472 0 0 0 0
4879	7857712 8872 33697 33697 252.9 300 472 0 0 0 0
4880	7866584 8872 33697 33697 252.9 300 472 0 0 0 0
4881	7875456 7501 33697 33697 260.2 300 399 0 0 0 0
4882	7882957 7501 33697 33697 260.2 300 399 0 0 0 0
4883	7890458 7501 33697 33697 260.2 300 399 0 0 0 0
4884	7897959 7482 33697 33697 260.3 300 398 0 0 0 0
4885	7905441 7482 33697 33697 260.3 300 398 0 0 0 0
4886	7912923 7482 33697 33697 260.3 300 398 0 0 0 0
4887	7920405 7482 33697 33697 260.3 300 398 0 0 0 0
4888	7927887 7482 33697 33697 260.3 300 398 0 0 0 0
4889	7935369 7482 33697 33697 260.3 300 398 0 0 0 0
4890	7942851 5621 33697 33697 270.2 300 299 0 0 0 0
4891	7948472 5621 33697 33697 270.2 300 299 0 0 0 0
4892	7954093 5621 33697 33697 270.2 300 299 0 0 0 0
4893	7959714 5621 33697 33697 270.2 300 299 0 0 0 0
4894	7965335 5621 33697 33697 270.2 300 299 0 0 0 0
4895	7970956 5621 33697 33697 270.2 300 299 0 0 0 0
4896	7976577 5621 33697 33697 270.2 300 299 0 0 0 0
4897	7982198 5621 33697 33697 270.2 300 299 0 0 0 0
4898	7987819 5621 33697 33697 270.2 300 299 0 0 0 0
4899	7993440 5621 33697 33697 270.2 300 299 0 0 0 0
4900	7999061 5621 33697 33697 270.2 300 299 0 0 0 0
4901	8004682 5621 33697 33697 270.2 300 299 0 0 0 0
4902	8010303 5131 33697 33697 272.8 300 273 0 0 0 0
4903	8015434 5131 33697 33697 272.8 300 273 0 0 0 0
4904	8020565 5131 33697 33697 272.8 300 273 0 0 0 0
4905	8025696 5131 33697 33697 272.8 300 273 0 0 0 0
4906	8030827 5131 33697 33697 272.8 300 273 0 0 0 0
4907	8035958 5131 33697 33697 272.8 300 273 0 0 0 0
4908	8041089 3741 33697 33697 280.2 300 199 0 0 0 0
4909	8044830 3741 33697 33697 280.2 300 199 0 0 0 0
4910	8048571 3741 33697 33697 280.2 300 199 0 0 0 0
4911	8052312 3741 33697 33697 280.2 300 199 0 0 0 0
4912	8056053 3741 33697 33697 280.2 300 199 0 0 0 0
4913	8059794 3741 33697 33697 280.2 300 199 0 0 0 0
4914	8063535 3722 33697 33697 280.3 300 198 0 0 0 0
4915	8067257 3722 33697 33697 280.3 300 198 0 0 0 0
4916	8070979 3722 33697 33697 280.3 300 198 0 0 0 0
4917	8074701 3722 33697 33697 280.3 300 198 0 0 0 0
4918	8078423 3722 33697 33697 280.3 300 198 0 0 0 0
4919	8082145 3722 33697 33697 280.3 300 198 0 0 0 0
4920	8085867 1861 33697 33697 290.2 300 99 0 0 0 0
4921	8087728 1861 33697 33697 290.2 300 99 0 0 0 0
4922	8089589 1861 33697 33697 290.2 300 99 0 0 0 0
4923	8091450 1861 33697 33697 290.2 300 99 0 0 0 0
4924	8093311 1861 33697 33697 290.2 300 99 0 0 0 0
4925	8095172 1861 33697 33697 290.2 300 99 0 0 0 0
4926	8097033 1861 33697 33697 290.2 300 99 0 0 0 0
4927	8098894 1861 33697 33697 290.2 300 99 0 0 0 0
4928	8100755 1861 33697 33697 290.2 300 99 0 0 0 0
4929	8102616 1861 33697 33697 290.2 300 99 0 0 0 0
4930	8104477 1861 33697 33697 290.2 300 99 0 0 0 0
4931	8106338 1861 33697 33697 290.2 300 99 0 0 0 0
4932	8108199 1371 33697 33697 292.8 300 73 0 0 0 0
4933	8109570 1371 33697 33697 292.8 300 73 0 0 0 0
4934	8110941 1371 33697 33697 292.8 300 73 0 0 0 0
4935	8112312 1352 33697 33697 292.9 300 72 0 0 0 0
4936	8113664 1352 33697 33697 292.9 300 72 0 0 0 0
4937	8115016 1352 33697 33697 292.9 300 72 0 0 0 0

