file 7440503 1733097010                                         
version 3
run plain-0-20241201-17:18:08-27470
attr configname plain
attr datetime 20241201-17:18:08
attr datetimef 20241201-171808
attr experiment plain
attr inifile omnetpp.ini
attr iterationvars ""
attr iterationvarsd ""
attr iterationvarsf ""
attr measurement ""
attr network Scenario
attr processid 27470
attr repetition 0
attr replication #0
attr resultdir results
attr runnumber 0
attr seedset 0
config image-path ../../../inet-master/images:../../../veins-master/images
config *.visualizer.osgVisualizer.typename ""
config network Scenario
config sim-time-limit 300s
config debug-on-errors true
config cmdenv-express-mode true
config image-path ../../../../images
config *.node[0].numApps 1
config *.node[0].app[0].typename feromona14.veins_inet.VeinsInetSampleApplication
config *.node[0].app[0].interface "\"wlan0\""
config *.node[0].wlan[0].opMode "\"p\""
config *.node[0].wlan[0].radio.typename Ieee80211DimensionalRadio
config *.node[0].wlan[0].radio.bandName "\"5.9 GHz\""
config *.node[0].wlan[0].radio.channelNumber 3
config *.node[0].wlan[0].radio.transmitter.power 0.50mW
config *.node[0].wlan[0].radio.bandwidth "10 MHz"
config *.node[0].wlan[*].radio.antenna.mobility.typename AttachedMobility
config *.node[0].wlan[*].radio.antenna.mobility.mobilityModule "\"^.^.^.^.mobility\""
config *.node[0].wlan[*].radio.antenna.mobility.offsetX -2.5m
config *.node[0].wlan[*].radio.antenna.mobility.offsetZ 6m
config *.node[0].wlan[*].radio.antenna.mobility.constraintAreaMinX 0m
config *.node[0].wlan[*].radio.antenna.mobility.constraintAreaMaxX 0m
config *.node[0].wlan[*].radio.antenna.mobility.constraintAreaMinY 0m
config *.node[0].wlan[*].radio.antenna.mobility.constraintAreaMaxY 0m
config *.node[0].wlan[*].radio.antenna.mobility.constraintAreaMinZ 0m
config *.node[0].wlan[*].radio.antenna.mobility.constraintAreaMaxZ 0m
config *.node[0].wlan[*].radio.displayCommunicationRange true
config *.node[0].ipv4.configurator.typename HostAutoConfigurator
config *.node[0].ipv4.configurator.interfaces "\"wlan0\""
config *.node[0].ipv4.configurator.mcastGroups "\"224.0.0.1\""
config *.node[0].mobility.typename VeinsInetMobility
config *.node[1].numApps 1
config *.node[1].app[0].typename feromona14.veins_inet.VeinsInetSampleApplication
config *.node[1].app[0].interface "\"wlan0\""
config *.node[1].wlan[0].opMode "\"p\""
config *.node[1].wlan[0].radio.typename Ieee80211DimensionalRadio
config *.node[1].wlan[0].radio.bandName "\"5.9 GHz\""
config *.node[1].wlan[0].radio.channelNumber 3
config *.node[1].wlan[0].radio.transmitter.power 0.50mW
config *.node[1].wlan[0].radio.bandwidth "10 MHz"
config *.node[1].wlan[*].radio.antenna.mobility.typename AttachedMobility
config *.node[1].wlan[*].radio.antenna.mobility.mobilityModule "\"^.^.^.^.mobility\""
config *.node[1].wlan[*].radio.antenna.mobility.offsetX -2.5m
config *.node[1].wlan[*].radio.antenna.mobility.offsetZ 6m
config *.node[1].wlan[*].radio.antenna.mobility.constraintAreaMinX 0m
config *.node[1].wlan[*].radio.antenna.mobility.constraintAreaMaxX 0m
config *.node[1].wlan[*].radio.antenna.mobility.constraintAreaMinY 0m
config *.node[1].wlan[*].radio.antenna.mobility.constraintAreaMaxY 0m
config *.node[1].wlan[*].radio.antenna.mobility.constraintAreaMinZ 0m
config *.node[1].wlan[*].radio.antenna.mobility.constraintAreaMaxZ 0m
config *.node[1].wlan[*].radio.displayCommunicationRange true
config *.node[1].ipv4.configurator.typename HostAutoConfigurator
config *.node[1].ipv4.configurator.interfaces "\"wlan0\""
config *.node[1].ipv4.configurator.mcastGroups "\"224.0.0.1\""
config *.node[1].mobility.typename VeinsInetMobility
config *.node[2].numApps 1
config *.node[2].app[0].typename feromona14.veins_inet.VeinsInetSampleApplication
config *.node[2].app[0].interface "\"wlan0\""
config *.node[2].wlan[0].opMode "\"p\""
config *.node[2].wlan[0].radio.typename Ieee80211DimensionalRadio
config *.node[2].wlan[0].radio.bandName "\"5.9 GHz\""
config *.node[2].wlan[0].radio.channelNumber 3
config *.node[2].wlan[0].radio.transmitter.power 0.50mW
config *.node[2].wlan[0].radio.bandwidth "10 MHz"
config *.node[2].wlan[*].radio.antenna.mobility.typename AttachedMobility
config *.node[2].wlan[*].radio.antenna.mobility.mobilityModule "\"^.^.^.^.mobility\""
config *.node[2].wlan[*].radio.antenna.mobility.offsetX -2.5m
config *.node[2].wlan[*].radio.antenna.mobility.offsetZ 6m
config *.node[2].wlan[*].radio.antenna.mobility.constraintAreaMinX 0m
config *.node[2].wlan[*].radio.antenna.mobility.constraintAreaMaxX 0m
config *.node[2].wlan[*].radio.antenna.mobility.constraintAreaMinY 0m
config *.node[2].wlan[*].radio.antenna.mobility.constraintAreaMaxY 0m
config *.node[2].wlan[*].radio.antenna.mobility.constraintAreaMinZ 0m
config *.node[2].wlan[*].radio.antenna.mobility.constraintAreaMaxZ 0m
config *.node[2].wlan[*].radio.displayCommunicationRange true
config *.node[2].ipv4.configurator.typename HostAutoConfigurator
config *.node[2].ipv4.configurator.interfaces "\"wlan0\""
config *.node[2].ipv4.configurator.mcastGroups "\"224.0.0.1\""
config *.node[2].mobility.typename VeinsInetMobility
config *.node[3].numApps 1
config *.node[3].app[0].typename feromona14.veins_inet.VeinsInetSampleApplication
config *.node[3].app[0].interface "\"wlan0\""
config *.node[3].wlan[0].opMode "\"p\""
config *.node[3].wlan[0].radio.typename Ieee80211DimensionalRadio
config *.node[3].wlan[0].radio.bandName "\"5.9 GHz\""
config *.node[3].wlan[0].radio.channelNumber 3
config *.node[3].wlan[0].radio.transmitter.power 0.50mW
config *.node[3].wlan[0].radio.bandwidth "10 MHz"
config *.node[3].wlan[*].radio.antenna.mobility.typename AttachedMobility
config *.node[3].wlan[*].radio.antenna.mobility.mobilityModule "\"^.^.^.^.mobility\""
config *.node[3].wlan[*].radio.antenna.mobility.offsetX -2.5m
config *.node[3].wlan[*].radio.antenna.mobility.offsetZ 6m
config *.node[3].wlan[*].radio.antenna.mobility.constraintAreaMinX 0m
config *.node[3].wlan[*].radio.antenna.mobility.constraintAreaMaxX 0m
config *.node[3].wlan[*].radio.antenna.mobility.constraintAreaMinY 0m
config *.node[3].wlan[*].radio.antenna.mobility.constraintAreaMaxY 0m
config *.node[3].wlan[*].radio.antenna.mobility.constraintAreaMinZ 0m
config *.node[3].wlan[*].radio.antenna.mobility.constraintAreaMaxZ 0m
config *.node[3].wlan[*].radio.displayCommunicationRange true
config *.node[3].ipv4.configurator.typename HostAutoConfigurator
config *.node[3].ipv4.configurator.interfaces "\"wlan0\""
config *.node[3].ipv4.configurator.mcastGroups "\"224.0.0.1\""
config *.node[3].mobility.typename VeinsInetMobility
config *.node[4].numApps 1
config *.node[4].app[0].typename feromona14.veins_inet.VeinsInetSampleApplication
config *.node[4].app[0].interface "\"wlan0\""
config *.node[4].wlan[0].opMode "\"p\""
config *.node[4].wlan[0].radio.typename Ieee80211DimensionalRadio
config *.node[4].wlan[0].radio.bandName "\"5.9 GHz\""
config *.node[4].wlan[0].radio.channelNumber 3
config *.node[4].wlan[0].radio.transmitter.power 0.50mW
config *.node[4].wlan[0].radio.bandwidth "10 MHz"
config *.node[4].wlan[*].radio.antenna.mobility.typename AttachedMobility
config *.node[4].wlan[*].radio.antenna.mobility.mobilityModule "\"^.^.^.^.mobility\""
config *.node[4].wlan[*].radio.antenna.mobility.offsetX -2.5m
config *.node[4].wlan[*].radio.antenna.mobility.offsetZ 6m
config *.node[4].wlan[*].radio.antenna.mobility.constraintAreaMinX 0m
config *.node[4].wlan[*].radio.antenna.mobility.constraintAreaMaxX 0m
config *.node[4].wlan[*].radio.antenna.mobility.constraintAreaMinY 0m
config *.node[4].wlan[*].radio.antenna.mobility.constraintAreaMaxY 0m
config *.node[4].wlan[*].radio.antenna.mobility.constraintAreaMinZ 0m
config *.node[4].wlan[*].radio.antenna.mobility.constraintAreaMaxZ 0m
config *.node[4].wlan[*].radio.displayCommunicationRange true
config *.node[4].ipv4.configurator.typename HostAutoConfigurator
config *.node[4].ipv4.configurator.interfaces "\"wlan0\""
config *.node[4].ipv4.configurator.mcastGroups "\"224.0.0.1\""
config *.node[4].mobility.typename VeinsInetMobility
config *.node[*].numApps 1
config *.node[*].app[0].typename feromona14.veins_inet.VeinsInetSampleApplication
config *.node[*].app[0].interface "\"wlan0\""
config *.node[*].wlan[0].opMode "\"p\""
config *.node[*].wlan[0].radio.typename Ieee80211DimensionalRadio
config *.node[*].wlan[0].radio.bandName "\"5.9 GHz\""
config *.node[*].wlan[0].radio.channelNumber 3
config *.node[*].wlan[0].radio.transmitter.power 0.50mW
config *.node[*].wlan[0].radio.bandwidth "10 MHz"
config *.node[*].wlan[*].radio.antenna.mobility.typename AttachedMobility
config *.node[*].wlan[*].radio.antenna.mobility.mobilityModule "\"^.^.^.^.mobility\""
config *.node[*].wlan[*].radio.antenna.mobility.offsetX -2.5m
config *.node[*].wlan[*].radio.antenna.mobility.offsetZ 1.5m
config *.node[*].wlan[*].radio.antenna.mobility.constraintAreaMinX 0m
config *.node[*].wlan[*].radio.antenna.mobility.constraintAreaMaxX 0m
config *.node[*].wlan[*].radio.antenna.mobility.constraintAreaMinY 0m
config *.node[*].wlan[*].radio.antenna.mobility.constraintAreaMaxY 0m
config *.node[*].wlan[*].radio.antenna.mobility.constraintAreaMinZ 0m
config *.node[*].wlan[*].radio.antenna.mobility.constraintAreaMaxZ 0m
config *.node[*].ipv4.configurator.typename HostAutoConfigurator
config *.node[*].ipv4.configurator.interfaces "\"wlan0\""
config *.node[*].ipv4.configurator.mcastGroups "\"224.0.0.1\""
config *.node[*].mobility.typename VeinsInetMobility
config *.manager.updateInterval 0.1s
config *.manager.host "\"localhost\""
config *.manager.port 9999
config *.manager.autoShutdown true
config *.manager.launchConfig "xmldoc(\"square.launchd.xml\")"
config *.manager.moduleType "\"feromona14.veins_inet.VeinsInetCar\""
config *.physicalEnvironment.config "xmldoc(\"obstacles.xml\")"
config *.radioMedium.obstacleLoss.typename IdealObstacleLoss
config **.vector-recording true

vector 0 Scenario.node[0].wlan[0].mac.dcf frameSequenceActive:vector ETV
attr autoWarmupFilter false
attr interpolationmode sample-hold
attr recordingmode vector
attr source warmup(count(frameSequenceStarted)-count(frameSequenceFinished))
attr title "frame sequence active"
vector 1 Scenario.node[0].wlan[0].mac.dcf.channelAccess.inProgressFrames queueLength:vector ETV
attr autoWarmupFilter false
attr interpolationmode sample-hold
attr recordingmode vector
attr source "warmup(count(packetEnqueued) - count(packetDequeued))"
attr title "queue length"
vector 2 Scenario.node[0].wlan[0].mac.dcf.channelAccess.contention backoffActive:vector ETV
attr autoWarmupFilter false
attr interpolationmode sample-hold
attr recordingmode vector
attr source warmup(count(backoffStarted)-count(backoffStopped))
attr title "backoff active"
vector 3 Scenario.node[0].udp passedUpPk:vector(count) ETV
attr interpolationmode none
attr recordingmode vector(count)
attr source packetSentToUpper
attr title "packets passed up, count"
vector 4 Scenario.node[0].udp droppedPkWrongPort:vector(count) ETV
attr interpolationmode none
attr recordingmode vector(count)
attr source packetDropReasonIsNoPortFound(packetDropped)
attr title "packets dropped (wrong port), count"
vector 5 Scenario.node[0].udp droppedPkBadChecksum:vector(count) ETV
attr interpolationmode none
attr recordingmode vector(count)
attr source packetDropReasonIsIncorrectlyReceived(packetDropped)
attr title "packets dropped (checksum error), count"
vector 6 Scenario.node[0].wlan[0].radio radioMode:vector ETV
attr interpolationmode sample-hold
attr recordingmode vector
attr source radioModeChanged
attr title "Radio mode"
vector 7 Scenario.node[0].wlan[0].radio radioChannel:vector ETV
attr interpolationmode sample-hold
attr recordingmode vector
attr source radioChannelChanged
attr title "Radio channel"
vector 8 Scenario.node[0].wlan[0].radio receptionState:vector ETV
attr interpolationmode sample-hold
attr recordingmode vector
attr source receptionStateChanged
attr title "Radio reception state"
vector 9 Scenario.node[0].wlan[0].mac.dcf.channelAccess.contention stateChanged:vector ETV
attr enum IDLE,DEFER,IFS_AND_BACKOFF
attr interpolationmode none
attr recordingmode vector
attr title "contention state changed"
attr type enum
vector 10 Scenario.node[0].wlan[0].mac.dcf.recoveryProcedure contentionWindowChanged:vector ETV
attr interpolationmode sample-hold
attr recordingmode vector
attr title "contention window"
vector 11 Scenario.node[1].wlan[0].mac.dcf frameSequenceActive:vector ETV
attr autoWarmupFilter false
attr interpolationmode sample-hold
attr recordingmode vector
attr source warmup(count(frameSequenceStarted)-count(frameSequenceFinished))
attr title "frame sequence active"
vector 12 Scenario.node[1].wlan[0].mac.dcf.channelAccess.inProgressFrames queueLength:vector ETV
attr autoWarmupFilter false
attr interpolationmode sample-hold
attr recordingmode vector
attr source "warmup(count(packetEnqueued) - count(packetDequeued))"
attr title "queue length"
vector 13 Scenario.node[1].wlan[0].mac.dcf.channelAccess.contention backoffActive:vector ETV
attr autoWarmupFilter false
attr interpolationmode sample-hold
attr recordingmode vector
attr source warmup(count(backoffStarted)-count(backoffStopped))
attr title "backoff active"
vector 14 Scenario.node[1].udp passedUpPk:vector(count) ETV
attr interpolationmode none
attr recordingmode vector(count)
attr source packetSentToUpper
attr title "packets passed up, count"
vector 15 Scenario.node[1].udp droppedPkWrongPort:vector(count) ETV
attr interpolationmode none
attr recordingmode vector(count)
attr source packetDropReasonIsNoPortFound(packetDropped)
attr title "packets dropped (wrong port), count"
vector 16 Scenario.node[1].udp droppedPkBadChecksum:vector(count) ETV
attr interpolationmode none
attr recordingmode vector(count)
attr source packetDropReasonIsIncorrectlyReceived(packetDropped)
attr title "packets dropped (checksum error), count"
vector 17 Scenario.node[1].wlan[0].radio radioMode:vector ETV
attr interpolationmode sample-hold
attr recordingmode vector
attr source radioModeChanged
attr title "Radio mode"
vector 18 Scenario.node[1].wlan[0].radio radioChannel:vector ETV
attr interpolationmode sample-hold
attr recordingmode vector
attr source radioChannelChanged
attr title "Radio channel"
vector 19 Scenario.node[1].wlan[0].radio receptionState:vector ETV
attr interpolationmode sample-hold
attr recordingmode vector
attr source receptionStateChanged
attr title "Radio reception state"
vector 20 Scenario.node[1].wlan[0].mac.dcf.channelAccess.contention stateChanged:vector ETV
attr enum IDLE,DEFER,IFS_AND_BACKOFF
attr interpolationmode none
attr recordingmode vector
attr title "contention state changed"
attr type enum
vector 21 Scenario.node[1].wlan[0].mac.dcf.recoveryProcedure contentionWindowChanged:vector ETV
attr interpolationmode sample-hold
attr recordingmode vector
attr title "contention window"
vector 22 Scenario.node[2].wlan[0].mac.dcf frameSequenceActive:vector ETV
attr autoWarmupFilter false
attr interpolationmode sample-hold
attr recordingmode vector
attr source warmup(count(frameSequenceStarted)-count(frameSequenceFinished))
attr title "frame sequence active"
vector 23 Scenario.node[2].wlan[0].mac.dcf.channelAccess.inProgressFrames queueLength:vector ETV
attr autoWarmupFilter false
attr interpolationmode sample-hold
attr recordingmode vector
attr source "warmup(count(packetEnqueued) - count(packetDequeued))"
attr title "queue length"
vector 24 Scenario.node[2].wlan[0].mac.dcf.channelAccess.contention backoffActive:vector ETV
attr autoWarmupFilter false
attr interpolationmode sample-hold
attr recordingmode vector
attr source warmup(count(backoffStarted)-count(backoffStopped))
attr title "backoff active"
vector 25 Scenario.node[2].udp passedUpPk:vector(count) ETV
attr interpolationmode none
attr recordingmode vector(count)
attr source packetSentToUpper
attr title "packets passed up, count"
vector 26 Scenario.node[2].udp droppedPkWrongPort:vector(count) ETV
attr interpolationmode none
attr recordingmode vector(count)
attr source packetDropReasonIsNoPortFound(packetDropped)
attr title "packets dropped (wrong port), count"
vector 27 Scenario.node[2].udp droppedPkBadChecksum:vector(count) ETV
attr interpolationmode none
attr recordingmode vector(count)
attr source packetDropReasonIsIncorrectlyReceived(packetDropped)
attr title "packets dropped (checksum error), count"
vector 28 Scenario.node[2].wlan[0].radio radioMode:vector ETV
attr interpolationmode sample-hold
attr recordingmode vector
attr source radioModeChanged
attr title "Radio mode"
vector 29 Scenario.node[2].wlan[0].radio radioChannel:vector ETV
attr interpolationmode sample-hold
attr recordingmode vector
attr source radioChannelChanged
attr title "Radio channel"
vector 30 Scenario.node[2].wlan[0].radio receptionState:vector ETV
attr interpolationmode sample-hold
attr recordingmode vector
attr source receptionStateChanged
attr title "Radio reception state"
vector 31 Scenario.node[2].wlan[0].mac.dcf.channelAccess.contention stateChanged:vector ETV
attr enum IDLE,DEFER,IFS_AND_BACKOFF
attr interpolationmode none
attr recordingmode vector
attr title "contention state changed"
attr type enum
vector 32 Scenario.node[2].wlan[0].mac.dcf.recoveryProcedure contentionWindowChanged:vector ETV
attr interpolationmode sample-hold
attr recordingmode vector
attr title "contention window"
vector 33 Scenario.node[3].wlan[0].mac.dcf frameSequenceActive:vector ETV
attr autoWarmupFilter false
attr interpolationmode sample-hold
attr recordingmode vector
attr source warmup(count(frameSequenceStarted)-count(frameSequenceFinished))
attr title "frame sequence active"
vector 34 Scenario.node[3].wlan[0].mac.dcf.channelAccess.inProgressFrames queueLength:vector ETV
attr autoWarmupFilter false
attr interpolationmode sample-hold
attr recordingmode vector
attr source "warmup(count(packetEnqueued) - count(packetDequeued))"
attr title "queue length"
vector 35 Scenario.node[3].wlan[0].mac.dcf.channelAccess.contention backoffActive:vector ETV
attr autoWarmupFilter false
attr interpolationmode sample-hold
attr recordingmode vector
attr source warmup(count(backoffStarted)-count(backoffStopped))
attr title "backoff active"
vector 36 Scenario.node[3].udp passedUpPk:vector(count) ETV
attr interpolationmode none
attr recordingmode vector(count)
attr source packetSentToUpper
attr title "packets passed up, count"
vector 37 Scenario.node[3].udp droppedPkWrongPort:vector(count) ETV
attr interpolationmode none
attr recordingmode vector(count)
attr source packetDropReasonIsNoPortFound(packetDropped)
attr title "packets dropped (wrong port), count"
vector 38 Scenario.node[3].udp droppedPkBadChecksum:vector(count) ETV
attr interpolationmode none
attr recordingmode vector(count)
attr source packetDropReasonIsIncorrectlyReceived(packetDropped)
attr title "packets dropped (checksum error), count"
vector 39 Scenario.node[3].wlan[0].radio radioMode:vector ETV
attr interpolationmode sample-hold
attr recordingmode vector
attr source radioModeChanged
attr title "Radio mode"
vector 40 Scenario.node[3].wlan[0].radio radioChannel:vector ETV
attr interpolationmode sample-hold
attr recordingmode vector
attr source radioChannelChanged
attr title "Radio channel"
vector 41 Scenario.node[3].wlan[0].radio receptionState:vector ETV
attr interpolationmode sample-hold
attr recordingmode vector
attr source receptionStateChanged
attr title "Radio reception state"
vector 42 Scenario.node[3].wlan[0].mac.dcf.channelAccess.contention stateChanged:vector ETV
attr enum IDLE,DEFER,IFS_AND_BACKOFF
attr interpolationmode none
attr recordingmode vector
attr title "contention state changed"
attr type enum
vector 43 Scenario.node[3].wlan[0].mac.dcf.recoveryProcedure contentionWindowChanged:vector ETV
attr interpolationmode sample-hold
attr recordingmode vector
attr title "contention window"
vector 44 Scenario.node[4].wlan[0].mac.dcf frameSequenceActive:vector ETV
attr autoWarmupFilter false
attr interpolationmode sample-hold
attr recordingmode vector
attr source warmup(count(frameSequenceStarted)-count(frameSequenceFinished))
attr title "frame sequence active"
vector 45 Scenario.node[4].wlan[0].mac.dcf.channelAccess.inProgressFrames queueLength:vector ETV
attr autoWarmupFilter false
attr interpolationmode sample-hold
attr recordingmode vector
attr source "warmup(count(packetEnqueued) - count(packetDequeued))"
attr title "queue length"
vector 46 Scenario.node[4].wlan[0].mac.dcf.channelAccess.contention backoffActive:vector ETV
attr autoWarmupFilter false
attr interpolationmode sample-hold
attr recordingmode vector
attr source warmup(count(backoffStarted)-count(backoffStopped))
attr title "backoff active"
vector 47 Scenario.node[4].udp passedUpPk:vector(count) ETV
attr interpolationmode none
attr recordingmode vector(count)
attr source packetSentToUpper
attr title "packets passed up, count"
vector 48 Scenario.node[4].udp droppedPkWrongPort:vector(count) ETV
attr interpolationmode none
attr recordingmode vector(count)
attr source packetDropReasonIsNoPortFound(packetDropped)
attr title "packets dropped (wrong port), count"
vector 49 Scenario.node[4].udp droppedPkBadChecksum:vector(count) ETV
attr interpolationmode none
attr recordingmode vector(count)
attr source packetDropReasonIsIncorrectlyReceived(packetDropped)
attr title "packets dropped (checksum error), count"
vector 50 Scenario.node[4].wlan[0].radio radioMode:vector ETV
attr interpolationmode sample-hold
attr recordingmode vector
attr source radioModeChanged
attr title "Radio mode"
vector 51 Scenario.node[4].wlan[0].radio radioChannel:vector ETV
attr interpolationmode sample-hold
attr recordingmode vector
attr source radioChannelChanged
attr title "Radio channel"
vector 52 Scenario.node[4].wlan[0].radio receptionState:vector ETV
attr interpolationmode sample-hold
attr recordingmode vector
attr source receptionStateChanged
attr title "Radio reception state"
vector 53 Scenario.node[4].wlan[0].mac.dcf.channelAccess.contention stateChanged:vector ETV
attr enum IDLE,DEFER,IFS_AND_BACKOFF
attr interpolationmode none
attr recordingmode vector
attr title "contention state changed"
attr type enum
vector 54 Scenario.node[4].wlan[0].mac.dcf.recoveryProcedure contentionWindowChanged:vector ETV
attr interpolationmode sample-hold
attr recordingmode vector
attr title "contention window"
vector 55 Scenario.node[5].wlan[0].mac.dcf frameSequenceActive:vector ETV
attr autoWarmupFilter false
attr interpolationmode sample-hold
attr recordingmode vector
attr source warmup(count(frameSequenceStarted)-count(frameSequenceFinished))
attr title "frame sequence active"
vector 56 Scenario.node[5].wlan[0].mac.dcf.channelAccess.inProgressFrames queueLength:vector ETV
attr autoWarmupFilter false
attr interpolationmode sample-hold
attr recordingmode vector
attr source "warmup(count(packetEnqueued) - count(packetDequeued))"
attr title "queue length"
vector 57 Scenario.node[5].wlan[0].mac.dcf.channelAccess.contention backoffActive:vector ETV
attr autoWarmupFilter false
attr interpolationmode sample-hold
attr recordingmode vector
attr source warmup(count(backoffStarted)-count(backoffStopped))
attr title "backoff active"
vector 58 Scenario.node[5].udp passedUpPk:vector(count) ETV
attr interpolationmode none
attr recordingmode vector(count)
attr source packetSentToUpper
attr title "packets passed up, count"
vector 59 Scenario.node[5].udp droppedPkWrongPort:vector(count) ETV
attr interpolationmode none
attr recordingmode vector(count)
attr source packetDropReasonIsNoPortFound(packetDropped)
attr title "packets dropped (wrong port), count"
vector 60 Scenario.node[5].udp droppedPkBadChecksum:vector(count) ETV
attr interpolationmode none
attr recordingmode vector(count)
attr source packetDropReasonIsIncorrectlyReceived(packetDropped)
attr title "packets dropped (checksum error), count"
vector 61 Scenario.node[5].wlan[0].radio radioMode:vector ETV
attr interpolationmode sample-hold
attr recordingmode vector
attr source radioModeChanged
attr title "Radio mode"
vector 62 Scenario.node[5].wlan[0].radio radioChannel:vector ETV
attr interpolationmode sample-hold
attr recordingmode vector
attr source radioChannelChanged
attr title "Radio channel"
vector 63 Scenario.node[5].wlan[0].radio receptionState:vector ETV
attr interpolationmode sample-hold
attr recordingmode vector
attr source receptionStateChanged
attr title "Radio reception state"
vector 64 Scenario.node[5].wlan[0].mac.dcf.channelAccess.contention stateChanged:vector ETV
attr enum IDLE,DEFER,IFS_AND_BACKOFF
attr interpolationmode none
attr recordingmode vector
attr title "contention state changed"
attr type enum
vector 65 Scenario.node[5].wlan[0].mac.dcf.recoveryProcedure contentionWindowChanged:vector ETV
attr interpolationmode sample-hold
attr recordingmode vector
attr title "contention window"
vector 66 Scenario.node[6].wlan[0].mac.dcf frameSequenceActive:vector ETV
attr autoWarmupFilter false
attr interpolationmode sample-hold
attr recordingmode vector
attr source warmup(count(frameSequenceStarted)-count(frameSequenceFinished))
attr title "frame sequence active"
vector 67 Scenario.node[6].wlan[0].mac.dcf.channelAccess.inProgressFrames queueLength:vector ETV
attr autoWarmupFilter false
attr interpolationmode sample-hold
attr recordingmode vector
attr source "warmup(count(packetEnqueued) - count(packetDequeued))"
attr title "queue length"
vector 68 Scenario.node[6].wlan[0].mac.dcf.channelAccess.contention backoffActive:vector ETV
attr autoWarmupFilter false
attr interpolationmode sample-hold
attr recordingmode vector
attr source warmup(count(backoffStarted)-count(backoffStopped))
attr title "backoff active"
vector 69 Scenario.node[6].udp passedUpPk:vector(count) ETV
attr interpolationmode none
attr recordingmode vector(count)
attr source packetSentToUpper
attr title "packets passed up, count"
vector 70 Scenario.node[6].udp droppedPkWrongPort:vector(count) ETV
attr interpolationmode none
attr recordingmode vector(count)
attr source packetDropReasonIsNoPortFound(packetDropped)
attr title "packets dropped (wrong port), count"
vector 71 Scenario.node[6].udp droppedPkBadChecksum:vector(count) ETV
attr interpolationmode none
attr recordingmode vector(count)
attr source packetDropReasonIsIncorrectlyReceived(packetDropped)
attr title "packets dropped (checksum error), count"
vector 72 Scenario.node[6].wlan[0].radio radioMode:vector ETV
attr interpolationmode sample-hold
attr recordingmode vector
attr source radioModeChanged
attr title "Radio mode"
vector 73 Scenario.node[6].wlan[0].radio radioChannel:vector ETV
attr interpolationmode sample-hold
attr recordingmode vector
attr source radioChannelChanged
attr title "Radio channel"
vector 74 Scenario.node[6].wlan[0].radio receptionState:vector ETV
attr interpolationmode sample-hold
attr recordingmode vector
attr source receptionStateChanged
attr title "Radio reception state"
vector 75 Scenario.node[6].wlan[0].mac.dcf.channelAccess.contention stateChanged:vector ETV
attr enum IDLE,DEFER,IFS_AND_BACKOFF
attr interpolationmode none
attr recordingmode vector
attr title "contention state changed"
attr type enum
vector 76 Scenario.node[6].wlan[0].mac.dcf.recoveryProcedure contentionWindowChanged:vector ETV
attr interpolationmode sample-hold
attr recordingmode vector
attr title "contention window"
vector 77 Scenario.node[7].wlan[0].mac.dcf frameSequenceActive:vector ETV
attr autoWarmupFilter false
attr interpolationmode sample-hold
attr recordingmode vector
attr source warmup(count(frameSequenceStarted)-count(frameSequenceFinished))
attr title "frame sequence active"
vector 78 Scenario.node[7].wlan[0].mac.dcf.channelAccess.inProgressFrames queueLength:vector ETV
attr autoWarmupFilter false
attr interpolationmode sample-hold
attr recordingmode vector
attr source "warmup(count(packetEnqueued) - count(packetDequeued))"
attr title "queue length"
vector 79 Scenario.node[7].wlan[0].mac.dcf.channelAccess.contention backoffActive:vector ETV
attr autoWarmupFilter false
attr interpolationmode sample-hold
attr recordingmode vector
attr source warmup(count(backoffStarted)-count(backoffStopped))
attr title "backoff active"
vector 80 Scenario.node[7].udp passedUpPk:vector(count) ETV
attr interpolationmode none
attr recordingmode vector(count)
attr source packetSentToUpper
attr title "packets passed up, count"
vector 81 Scenario.node[7].udp droppedPkWrongPort:vector(count) ETV
attr interpolationmode none
attr recordingmode vector(count)
attr source packetDropReasonIsNoPortFound(packetDropped)
attr title "packets dropped (wrong port), count"
vector 82 Scenario.node[7].udp droppedPkBadChecksum:vector(count) ETV
attr interpolationmode none
attr recordingmode vector(count)
attr source packetDropReasonIsIncorrectlyReceived(packetDropped)
attr title "packets dropped (checksum error), count"
vector 83 Scenario.node[7].wlan[0].radio radioMode:vector ETV
attr interpolationmode sample-hold
attr recordingmode vector
attr source radioModeChanged
attr title "Radio mode"
vector 84 Scenario.node[7].wlan[0].radio radioChannel:vector ETV
attr interpolationmode sample-hold
attr recordingmode vector
attr source radioChannelChanged
attr title "Radio channel"
vector 85 Scenario.node[7].wlan[0].radio receptionState:vector ETV
attr interpolationmode sample-hold
attr recordingmode vector
attr source receptionStateChanged
attr title "Radio reception state"
vector 86 Scenario.node[7].wlan[0].mac.dcf.channelAccess.contention stateChanged:vector ETV
attr enum IDLE,DEFER,IFS_AND_BACKOFF
attr interpolationmode none
attr recordingmode vector
attr title "contention state changed"
attr type enum
vector 87 Scenario.node[7].wlan[0].mac.dcf.recoveryProcedure contentionWindowChanged:vector ETV
attr interpolationmode sample-hold
attr recordingmode vector
attr title "contention window"
vector 88 Scenario.node[8].wlan[0].mac.dcf frameSequenceActive:vector ETV
attr autoWarmupFilter false
attr interpolationmode sample-hold
attr recordingmode vector
attr source warmup(count(frameSequenceStarted)-count(frameSequenceFinished))
attr title "frame sequence active"
vector 89 Scenario.node[8].wlan[0].mac.dcf.channelAccess.inProgressFrames queueLength:vector ETV
attr autoWarmupFilter false
attr interpolationmode sample-hold
attr recordingmode vector
attr source "warmup(count(packetEnqueued) - count(packetDequeued))"
attr title "queue length"
vector 90 Scenario.node[8].wlan[0].mac.dcf.channelAccess.contention backoffActive:vector ETV
attr autoWarmupFilter false
attr interpolationmode sample-hold
attr recordingmode vector
attr source warmup(count(backoffStarted)-count(backoffStopped))
attr title "backoff active"
vector 91 Scenario.node[8].udp passedUpPk:vector(count) ETV
attr interpolationmode none
attr recordingmode vector(count)
attr source packetSentToUpper
attr title "packets passed up, count"
vector 92 Scenario.node[8].udp droppedPkWrongPort:vector(count) ETV
attr interpolationmode none
attr recordingmode vector(count)
attr source packetDropReasonIsNoPortFound(packetDropped)
attr title "packets dropped (wrong port), count"
vector 93 Scenario.node[8].udp droppedPkBadChecksum:vector(count) ETV
attr interpolationmode none
attr recordingmode vector(count)
attr source packetDropReasonIsIncorrectlyReceived(packetDropped)
attr title "packets dropped (checksum error), count"
vector 94 Scenario.node[8].wlan[0].radio radioMode:vector ETV
attr interpolationmode sample-hold
attr recordingmode vector
attr source radioModeChanged
attr title "Radio mode"
vector 95 Scenario.node[8].wlan[0].radio radioChannel:vector ETV
attr interpolationmode sample-hold
attr recordingmode vector
attr source radioChannelChanged
attr title "Radio channel"
vector 96 Scenario.node[8].wlan[0].radio receptionState:vector ETV
attr interpolationmode sample-hold
attr recordingmode vector
attr source receptionStateChanged
attr title "Radio reception state"
vector 97 Scenario.node[8].wlan[0].mac.dcf.channelAccess.contention stateChanged:vector ETV
attr enum IDLE,DEFER,IFS_AND_BACKOFF
attr interpolationmode none
attr recordingmode vector
attr title "contention state changed"
attr type enum
vector 98 Scenario.node[8].wlan[0].mac.dcf.recoveryProcedure contentionWindowChanged:vector ETV
attr interpolationmode sample-hold
attr recordingmode vector
attr title "contention window"
vector 99 Scenario.node[9].wlan[0].mac.dcf frameSequenceActive:vector ETV
attr autoWarmupFilter false
attr interpolationmode sample-hold
attr recordingmode vector
attr source warmup(count(frameSequenceStarted)-count(frameSequenceFinished))
attr title "frame sequence active"
vector 100 Scenario.node[9].wlan[0].mac.dcf.channelAccess.inProgressFrames queueLength:vector ETV
attr autoWarmupFilter false
attr interpolationmode sample-hold
attr recordingmode vector
attr source "warmup(count(packetEnqueued) - count(packetDequeued))"
attr title "queue length"
vector 101 Scenario.node[9].wlan[0].mac.dcf.channelAccess.contention backoffActive:vector ETV
attr autoWarmupFilter false
attr interpolationmode sample-hold
attr recordingmode vector
attr source warmup(count(backoffStarted)-count(backoffStopped))
attr title "backoff active"
vector 102 Scenario.node[9].udp passedUpPk:vector(count) ETV
attr interpolationmode none
attr recordingmode vector(count)
attr source packetSentToUpper
attr title "packets passed up, count"
vector 103 Scenario.node[9].udp droppedPkWrongPort:vector(count) ETV
attr interpolationmode none
attr recordingmode vector(count)
attr source packetDropReasonIsNoPortFound(packetDropped)
attr title "packets dropped (wrong port), count"
vector 104 Scenario.node[9].udp droppedPkBadChecksum:vector(count) ETV
attr interpolationmode none
attr recordingmode vector(count)
attr source packetDropReasonIsIncorrectlyReceived(packetDropped)
attr title "packets dropped (checksum error), count"
vector 105 Scenario.node[9].wlan[0].radio radioMode:vector ETV
attr interpolationmode sample-hold
attr recordingmode vector
attr source radioModeChanged
attr title "Radio mode"
vector 106 Scenario.node[9].wlan[0].radio radioChannel:vector ETV
attr interpolationmode sample-hold
attr recordingmode vector
attr source radioChannelChanged
attr title "Radio channel"
vector 107 Scenario.node[9].wlan[0].radio receptionState:vector ETV
attr interpolationmode sample-hold
attr recordingmode vector
attr source receptionStateChanged
attr title "Radio reception state"
vector 108 Scenario.node[9].wlan[0].mac.dcf.channelAccess.contention stateChanged:vector ETV
attr enum IDLE,DEFER,IFS_AND_BACKOFF
attr interpolationmode none
attr recordingmode vector
attr title "contention state changed"
attr type enum
vector 109 Scenario.node[9].wlan[0].mac.dcf.recoveryProcedure contentionWindowChanged:vector ETV
attr interpolationmode sample-hold
attr recordingmode vector
attr title "contention window"
vector 110 Scenario.node[10].wlan[0].mac.dcf frameSequenceActive:vector ETV
attr autoWarmupFilter false
attr interpolationmode sample-hold
attr recordingmode vector
attr source warmup(count(frameSequenceStarted)-count(frameSequenceFinished))
attr title "frame sequence active"
vector 111 Scenario.node[10].wlan[0].mac.dcf.channelAccess.inProgressFrames queueLength:vector ETV
attr autoWarmupFilter false
attr interpolationmode sample-hold
attr recordingmode vector
attr source "warmup(count(packetEnqueued) - count(packetDequeued))"
attr title "queue length"
vector 112 Scenario.node[10].wlan[0].mac.dcf.channelAccess.contention backoffActive:vector ETV
attr autoWarmupFilter false
attr interpolationmode sample-hold
attr recordingmode vector
attr source warmup(count(backoffStarted)-count(backoffStopped))
attr title "backoff active"
vector 113 Scenario.node[10].udp passedUpPk:vector(count) ETV
attr interpolationmode none
attr recordingmode vector(count)
attr source packetSentToUpper
attr title "packets passed up, count"
vector 114 Scenario.node[10].udp droppedPkWrongPort:vector(count) ETV
attr interpolationmode none
attr recordingmode vector(count)
attr source packetDropReasonIsNoPortFound(packetDropped)
attr title "packets dropped (wrong port), count"
vector 115 Scenario.node[10].udp droppedPkBadChecksum:vector(count) ETV
attr interpolationmode none
attr recordingmode vector(count)
attr source packetDropReasonIsIncorrectlyReceived(packetDropped)
attr title "packets dropped (checksum error), count"
vector 116 Scenario.node[10].wlan[0].radio radioMode:vector ETV
attr interpolationmode sample-hold
attr recordingmode vector
attr source radioModeChanged
attr title "Radio mode"
vector 117 Scenario.node[10].wlan[0].radio radioChannel:vector ETV
attr interpolationmode sample-hold
attr recordingmode vector
attr source radioChannelChanged
attr title "Radio channel"
vector 118 Scenario.node[10].wlan[0].radio receptionState:vector ETV
attr interpolationmode sample-hold
attr recordingmode vector
attr source receptionStateChanged
attr title "Radio reception state"
vector 119 Scenario.node[10].wlan[0].mac.dcf.channelAccess.contention stateChanged:vector ETV
attr enum IDLE,DEFER,IFS_AND_BACKOFF
attr interpolationmode none
attr recordingmode vector
attr title "contention state changed"
attr type enum
vector 120 Scenario.node[10].wlan[0].mac.dcf.recoveryProcedure contentionWindowChanged:vector ETV
attr interpolationmode sample-hold
attr recordingmode vector
attr title "contention window"
vector 121 Scenario.node[11].wlan[0].mac.dcf frameSequenceActive:vector ETV
attr autoWarmupFilter false
attr interpolationmode sample-hold
attr recordingmode vector
attr source warmup(count(frameSequenceStarted)-count(frameSequenceFinished))
attr title "frame sequence active"
vector 122 Scenario.node[11].wlan[0].mac.dcf.channelAccess.inProgressFrames queueLength:vector ETV
attr autoWarmupFilter false
attr interpolationmode sample-hold
attr recordingmode vector
attr source "warmup(count(packetEnqueued) - count(packetDequeued))"
attr title "queue length"
vector 123 Scenario.node[11].wlan[0].mac.dcf.channelAccess.contention backoffActive:vector ETV
attr autoWarmupFilter false
attr interpolationmode sample-hold
attr recordingmode vector
attr source warmup(count(backoffStarted)-count(backoffStopped))
attr title "backoff active"
vector 124 Scenario.node[11].udp passedUpPk:vector(count) ETV
attr interpolationmode none
attr recordingmode vector(count)
attr source packetSentToUpper
attr title "packets passed up, count"
vector 125 Scenario.node[11].udp droppedPkWrongPort:vector(count) ETV
attr interpolationmode none
attr recordingmode vector(count)
attr source packetDropReasonIsNoPortFound(packetDropped)
attr title "packets dropped (wrong port), count"
vector 126 Scenario.node[11].udp droppedPkBadChecksum:vector(count) ETV
attr interpolationmode none
attr recordingmode vector(count)
attr source packetDropReasonIsIncorrectlyReceived(packetDropped)
attr title "packets dropped (checksum error), count"
vector 127 Scenario.node[11].wlan[0].radio radioMode:vector ETV
attr interpolationmode sample-hold
attr recordingmode vector
attr source radioModeChanged
attr title "Radio mode"
vector 128 Scenario.node[11].wlan[0].radio radioChannel:vector ETV
attr interpolationmode sample-hold
attr recordingmode vector
attr source radioChannelChanged
attr title "Radio channel"
vector 129 Scenario.node[11].wlan[0].radio receptionState:vector ETV
attr interpolationmode sample-hold
attr recordingmode vector
attr source receptionStateChanged
attr title "Radio reception state"
vector 130 Scenario.node[11].wlan[0].mac.dcf.channelAccess.contention stateChanged:vector ETV
attr enum IDLE,DEFER,IFS_AND_BACKOFF
attr interpolationmode none
attr recordingmode vector
attr title "contention state changed"
attr type enum
vector 131 Scenario.node[11].wlan[0].mac.dcf.recoveryProcedure contentionWindowChanged:vector ETV
attr interpolationmode sample-hold
attr recordingmode vector
attr title "contention window"
vector 132 Scenario.node[12].wlan[0].mac.dcf frameSequenceActive:vector ETV
attr autoWarmupFilter false
attr interpolationmode sample-hold
attr recordingmode vector
attr source warmup(count(frameSequenceStarted)-count(frameSequenceFinished))
attr title "frame sequence active"
vector 133 Scenario.node[12].wlan[0].mac.dcf.channelAccess.inProgressFrames queueLength:vector ETV
attr autoWarmupFilter false
attr interpolationmode sample-hold
attr recordingmode vector
attr source "warmup(count(packetEnqueued) - count(packetDequeued))"
attr title "queue length"
vector 134 Scenario.node[12].wlan[0].mac.dcf.channelAccess.contention backoffActive:vector ETV
attr autoWarmupFilter false
attr interpolationmode sample-hold
attr recordingmode vector
attr source warmup(count(backoffStarted)-count(backoffStopped))
attr title "backoff active"
vector 135 Scenario.node[12].udp passedUpPk:vector(count) ETV
attr interpolationmode none
attr recordingmode vector(count)
attr source packetSentToUpper
attr title "packets passed up, count"
vector 136 Scenario.node[12].udp droppedPkWrongPort:vector(count) ETV
attr interpolationmode none
attr recordingmode vector(count)
attr source packetDropReasonIsNoPortFound(packetDropped)
attr title "packets dropped (wrong port), count"
vector 137 Scenario.node[12].udp droppedPkBadChecksum:vector(count) ETV
attr interpolationmode none
attr recordingmode vector(count)
attr source packetDropReasonIsIncorrectlyReceived(packetDropped)
attr title "packets dropped (checksum error), count"
vector 138 Scenario.node[12].wlan[0].radio radioMode:vector ETV
attr interpolationmode sample-hold
attr recordingmode vector
attr source radioModeChanged
attr title "Radio mode"
vector 139 Scenario.node[12].wlan[0].radio radioChannel:vector ETV
attr interpolationmode sample-hold
attr recordingmode vector
attr source radioChannelChanged
attr title "Radio channel"
vector 140 Scenario.node[12].wlan[0].radio receptionState:vector ETV
attr interpolationmode sample-hold
attr recordingmode vector
attr source receptionStateChanged
attr title "Radio reception state"
vector 141 Scenario.node[12].wlan[0].mac.dcf.channelAccess.contention stateChanged:vector ETV
attr enum IDLE,DEFER,IFS_AND_BACKOFF
attr interpolationmode none
attr recordingmode vector
attr title "contention state changed"
attr type enum
vector 142 Scenario.node[12].wlan[0].mac.dcf.recoveryProcedure contentionWindowChanged:vector ETV
attr interpolationmode sample-hold
attr recordingmode vector
attr title "contention window"
vector 143 Scenario.node[13].wlan[0].mac.dcf frameSequenceActive:vector ETV
attr autoWarmupFilter false
attr interpolationmode sample-hold
attr recordingmode vector
attr source warmup(count(frameSequenceStarted)-count(frameSequenceFinished))
attr title "frame sequence active"
vector 144 Scenario.node[13].wlan[0].mac.dcf.channelAccess.inProgressFrames queueLength:vector ETV
attr autoWarmupFilter false
attr interpolationmode sample-hold
attr recordingmode vector
attr source "warmup(count(packetEnqueued) - count(packetDequeued))"
attr title "queue length"
vector 145 Scenario.node[13].wlan[0].mac.dcf.channelAccess.contention backoffActive:vector ETV
attr autoWarmupFilter false
attr interpolationmode sample-hold
attr recordingmode vector
attr source warmup(count(backoffStarted)-count(backoffStopped))
attr title "backoff active"
vector 146 Scenario.node[13].udp passedUpPk:vector(count) ETV
attr interpolationmode none
attr recordingmode vector(count)
attr source packetSentToUpper
attr title "packets passed up, count"
vector 147 Scenario.node[13].udp droppedPkWrongPort:vector(count) ETV
attr interpolationmode none
attr recordingmode vector(count)
attr source packetDropReasonIsNoPortFound(packetDropped)
attr title "packets dropped (wrong port), count"
vector 148 Scenario.node[13].udp droppedPkBadChecksum:vector(count) ETV
attr interpolationmode none
attr recordingmode vector(count)
attr source packetDropReasonIsIncorrectlyReceived(packetDropped)
attr title "packets dropped (checksum error), count"
vector 149 Scenario.node[13].wlan[0].radio radioMode:vector ETV
attr interpolationmode sample-hold
attr recordingmode vector
attr source radioModeChanged
attr title "Radio mode"
vector 150 Scenario.node[13].wlan[0].radio radioChannel:vector ETV
attr interpolationmode sample-hold
attr recordingmode vector
attr source radioChannelChanged
attr title "Radio channel"
vector 151 Scenario.node[13].wlan[0].radio receptionState:vector ETV
attr interpolationmode sample-hold
attr recordingmode vector
attr source receptionStateChanged
attr title "Radio reception state"
vector 152 Scenario.node[13].wlan[0].mac.dcf.channelAccess.contention stateChanged:vector ETV
attr enum IDLE,DEFER,IFS_AND_BACKOFF
attr interpolationmode none
attr recordingmode vector
attr title "contention state changed"
attr type enum
vector 153 Scenario.node[13].wlan[0].mac.dcf.recoveryProcedure contentionWindowChanged:vector ETV
attr interpolationmode sample-hold
attr recordingmode vector
attr title "contention window"
vector 154 Scenario.node[14].wlan[0].mac.dcf frameSequenceActive:vector ETV
attr autoWarmupFilter false
attr interpolationmode sample-hold
attr recordingmode vector
attr source warmup(count(frameSequenceStarted)-count(frameSequenceFinished))
attr title "frame sequence active"
vector 155 Scenario.node[14].wlan[0].mac.dcf.channelAccess.inProgressFrames queueLength:vector ETV
attr autoWarmupFilter false
attr interpolationmode sample-hold
attr recordingmode vector
attr source "warmup(count(packetEnqueued) - count(packetDequeued))"
attr title "queue length"
vector 156 Scenario.node[14].wlan[0].mac.dcf.channelAccess.contention backoffActive:vector ETV
attr autoWarmupFilter false
attr interpolationmode sample-hold
attr recordingmode vector
attr source warmup(count(backoffStarted)-count(backoffStopped))
attr title "backoff active"
vector 157 Scenario.node[14].udp passedUpPk:vector(count) ETV
attr interpolationmode none
attr recordingmode vector(count)
attr source packetSentToUpper
attr title "packets passed up, count"
vector 158 Scenario.node[14].udp droppedPkWrongPort:vector(count) ETV
attr interpolationmode none
attr recordingmode vector(count)
attr source packetDropReasonIsNoPortFound(packetDropped)
attr title "packets dropped (wrong port), count"
vector 159 Scenario.node[14].udp droppedPkBadChecksum:vector(count) ETV
attr interpolationmode none
attr recordingmode vector(count)
attr source packetDropReasonIsIncorrectlyReceived(packetDropped)
attr title "packets dropped (checksum error), count"
vector 160 Scenario.node[14].wlan[0].radio radioMode:vector ETV
attr interpolationmode sample-hold
attr recordingmode vector
attr source radioModeChanged
attr title "Radio mode"
vector 161 Scenario.node[14].wlan[0].radio radioChannel:vector ETV
attr interpolationmode sample-hold
attr recordingmode vector
attr source radioChannelChanged
attr title "Radio channel"
vector 162 Scenario.node[14].wlan[0].radio receptionState:vector ETV
attr interpolationmode sample-hold
attr recordingmode vector
attr source receptionStateChanged
attr title "Radio reception state"
vector 163 Scenario.node[14].wlan[0].mac.dcf.channelAccess.contention stateChanged:vector ETV
attr enum IDLE,DEFER,IFS_AND_BACKOFF
attr interpolationmode none
attr recordingmode vector
attr title "contention state changed"
attr type enum
vector 164 Scenario.node[14].wlan[0].mac.dcf.recoveryProcedure contentionWindowChanged:vector ETV
attr interpolationmode sample-hold
attr recordingmode vector
attr title "contention window"
vector 165 Scenario.node[5].app[0] packetSent:vector(packetBytes) ETV
attr interpolationmode none
attr recordingmode vector(packetBytes)
attr source packetSent
attr title "packets sent, packetBytes"
vector 166 Scenario.node[5].udp packetSent:vector(packetBytes) ETV
attr interpolationmode none
attr recordingmode vector(packetBytes)
attr source packetSent
attr title "packets sent, packetBytes"
vector 167 Scenario.node[5].lo[0].lo rcvdPkFromHl:vector(packetBytes) ETV
attr interpolationmode none
attr recordingmode vector(packetBytes)
attr source packetReceivedFromUpper
attr title "packets received from higher layer, packetBytes"
vector 168 Scenario.node[5].lo[0].lo passedUpPk:vector(packetBytes) ETV
attr interpolationmode none
attr recordingmode vector(packetBytes)
attr source packetSentToUpper
attr title "packets passed to higher layer, packetBytes"
vector 169 Scenario.node[5].wlan[0].mac packetReceivedFromUpper:vector(packetBytes) ETV
attr interpolationmode none
attr recordingmode vector(packetBytes)
attr title "packets received from upper layer, packetBytes"
vector 170 Scenario.node[5].wlan[0].mac.dcf.channelAccess.pendingQueue incomingPacketLengths:vector ETV
attr interpolationmode none
attr recordingmode vector
attr source packetLength(packetPushStarted)
attr title "incoming packet lengths"
attr unit b
vector 171 Scenario.node[5].wlan[0].mac.dcf.channelAccess.pendingQueue incomingDataRate:vector ETV
attr interpolationmode linear
attr recordingmode vector
attr source throughput(packetPushStarted)
attr title "incoming datarate"
attr unit bps
vector 172 Scenario.node[5].wlan[0].mac.dcf.channelAccess.pendingQueue queueLength:vector ETV
attr autoWarmupFilter false
attr interpolationmode sample-hold
attr recordingmode vector
attr source "warmup(atomic(constant0(packetPushEnded) + count(packetPushStarted) - count(packetPulled) - count(packetRemoved) - count(packetDropped)))"
attr title "queue length"
attr unit pk
vector 173 Scenario.node[5].wlan[0].mac.dcf.channelAccess.pendingQueue queueBitLength:vector ETV
attr autoWarmupFilter false
attr interpolationmode sample-hold
attr recordingmode vector
attr source "warmup(atomic(constant0(packetPushEnded) + sum(packetLength(packetPushStarted)) - sum(packetLength(packetPulled)) - sum(packetLength(packetRemoved)) - sum(packetLength(packetDropped))))"
attr title "queue bit length"
attr unit b
vector 174 Scenario.node[5].wlan[0].mac.dcf.channelAccess.contention backoffPeriodGenerated:vector ETV
attr interpolationmode none
attr recordingmode vector
attr title "backoff periods"
vector 175 Scenario.node[5].udp packetReceived:vector(packetBytes) ETV
attr interpolationmode none
attr recordingmode vector(packetBytes)
attr source packetReceived
attr title "packets received, packetBytes"
vector 176 Scenario.node[5].app[0] packetReceived:vector(packetBytes) ETV
attr interpolationmode none
attr recordingmode vector(packetBytes)
attr source packetReceived
attr title "packets received, packetBytes"
vector 177 Scenario.node[5].app[0] throughput:vector ETV
attr recordingmode vector
attr source throughput(packetReceived)
attr title throughput
attr unit bps
vector 178 Scenario.node[5].app[0] rcvdPkLifetime:vector ETV
attr interpolationmode none
attr recordingmode vector
attr source dataAge(packetReceived)
attr title "received packet lifetime"
attr unit s
vector 179 Scenario.node[5].wlan[0].mac.dcf.channelAccess.pendingQueue queueingTime:vector ETV
attr interpolationmode none
attr recordingmode vector
attr source queueingTime(packetPulled)
attr title "queueing times"
attr unit s
vector 180 Scenario.node[5].wlan[0].mac.dcf.channelAccess.pendingQueue outgoingPacketLengths:vector ETV
attr interpolationmode none
attr recordingmode vector
attr source packetLength(packetPulled)
attr title "outgoing packet lengths"
attr unit b
vector 181 Scenario.node[5].wlan[0].mac.dcf.channelAccess.pendingQueue outgoingDataRate:vector ETV
attr interpolationmode linear
attr recordingmode vector
attr source throughput(packetPulled)
attr title "outgoing datarate"
attr unit bps
vector 182 Scenario.node[5].wlan[0].mac.dcf datarateSelected:vector ETV
attr interpolationmode none
attr recordingmode vector
attr title "datarates selected"
vector 183 Scenario.node[5].wlan[0].mac packetSentToLower:vector(packetBytes) ETV
attr interpolationmode none
attr recordingmode vector(packetBytes)
attr title "packets sent to lower layer, packetBytes"
vector 184 Scenario.node[5].wlan[0].radio transmissionState:vector ETV
attr interpolationmode sample-hold
attr recordingmode vector
attr source transmissionStateChanged
attr title "Radio transmission state"
vector 185 Scenario.node[5].wlan[0].mac.dcf packetSentToPeer:vector(packetBytes) ETV
attr interpolationmode none
attr recordingmode vector(packetBytes)
attr title "packets sent, packetBytes"
vector 186 Scenario.node[5].wlan[0].mac.dcf packetSentToPeerMulticast:vector(packetBytes) ETV
attr interpolationmode none
attr recordingmode vector(packetBytes)
attr source ieee80211Multicast(packetSentToPeer)
attr title "packets sent: multicast, packetBytes"
vector 187 Scenario.node[5].wlan[0].mac.dcf packetSentToPeerWithoutRetry:vector(packetBytes) ETV
attr interpolationmode none
attr recordingmode vector(packetBytes)
attr source ieee80211NotRetry(packetSentToPeer)
attr title "packets sent: without retry, packetBytes"
vector 188 Scenario.node[5].wlan[0].mac.dcf.channelAccess.inProgressFrames queueingTime:vector ETV
attr interpolationmode none
attr recordingmode vector
attr source queueingTime(packetDequeued)
attr title "queueing times"
vector 189 Scenario.node[6].wlan[0].mac packetReceivedFromLower:vector(packetBytes) ETV
attr interpolationmode none
attr recordingmode vector(packetBytes)
attr title "packets received from lower layer, packetBytes"
vector 190 Scenario.node[6].wlan[0].mac.dcf packetReceivedFromPeer:vector(packetBytes) ETV
attr interpolationmode none
attr recordingmode vector(packetBytes)
attr title "packets received, packetBytes"
vector 191 Scenario.node[6].wlan[0].mac.dcf packetReceivedFromPeerMulticast:vector(packetBytes) ETV
attr interpolationmode none
attr recordingmode vector(packetBytes)
attr source ieee80211Multicast(packetReceivedFromPeer)
attr title "packets received: multicast, packetBytes"
vector 192 Scenario.node[6].wlan[0].mac.dcf packetReceivedFromPeerWithoutRetry:vector(packetBytes) ETV
attr interpolationmode none
attr recordingmode vector(packetBytes)
attr source ieee80211NotRetry(packetReceivedFromPeer)
attr title "packets received: without retry, packetBytes"
vector 193 Scenario.node[6].wlan[0].mac packetSentToUpper:vector(packetBytes) ETV
attr interpolationmode none
attr recordingmode vector(packetBytes)
attr title "packets sent to upper layer, packetBytes"
vector 194 Scenario.node[6].udp packetReceived:vector(packetBytes) ETV
attr interpolationmode none
attr recordingmode vector(packetBytes)
attr source packetReceived
attr title "packets received, packetBytes"
vector 195 Scenario.node[6].app[0] packetReceived:vector(packetBytes) ETV
attr interpolationmode none
attr recordingmode vector(packetBytes)
attr source packetReceived
attr title "packets received, packetBytes"
vector 196 Scenario.node[6].app[0] throughput:vector ETV
attr recordingmode vector
attr source throughput(packetReceived)
attr title throughput
attr unit bps
vector 197 Scenario.node[6].app[0] rcvdPkLifetime:vector ETV
attr interpolationmode none
attr recordingmode vector
attr source dataAge(packetReceived)
attr title "received packet lifetime"
attr unit s
vector 198 Scenario.node[0].wlan[0].mac packetReceivedFromLower:vector(packetBytes) ETV
attr interpolationmode none
attr recordingmode vector(packetBytes)
attr title "packets received from lower layer, packetBytes"
vector 199 Scenario.node[0].wlan[0].mac.dcf packetReceivedFromPeer:vector(packetBytes) ETV
attr interpolationmode none
attr recordingmode vector(packetBytes)
attr title "packets received, packetBytes"
vector 200 Scenario.node[0].wlan[0].mac.dcf packetReceivedFromPeerMulticast:vector(packetBytes) ETV
attr interpolationmode none
attr recordingmode vector(packetBytes)
attr source ieee80211Multicast(packetReceivedFromPeer)
attr title "packets received: multicast, packetBytes"
vector 201 Scenario.node[0].wlan[0].mac.dcf packetReceivedFromPeerWithoutRetry:vector(packetBytes) ETV
attr interpolationmode none
attr recordingmode vector(packetBytes)
attr source ieee80211NotRetry(packetReceivedFromPeer)
attr title "packets received: without retry, packetBytes"
vector 202 Scenario.node[0].wlan[0].mac packetSentToUpper:vector(packetBytes) ETV
attr interpolationmode none
attr recordingmode vector(packetBytes)
attr title "packets sent to upper layer, packetBytes"
vector 203 Scenario.node[0].udp packetReceived:vector(packetBytes) ETV
attr interpolationmode none
attr recordingmode vector(packetBytes)
attr source packetReceived
attr title "packets received, packetBytes"
vector 204 Scenario.node[0].app[0] packetReceived:vector(packetBytes) ETV
attr interpolationmode none
attr recordingmode vector(packetBytes)
attr source packetReceived
attr title "packets received, packetBytes"
vector 205 Scenario.node[0].app[0] throughput:vector ETV
attr recordingmode vector
attr source throughput(packetReceived)
attr title throughput
attr unit bps
vector 206 Scenario.node[0].app[0] rcvdPkLifetime:vector ETV
attr interpolationmode none
attr recordingmode vector
attr source dataAge(packetReceived)
attr title "received packet lifetime"
attr unit s
vector 207 Scenario.node[0].app[0] packetSent:vector(packetBytes) ETV
attr interpolationmode none
attr recordingmode vector(packetBytes)
attr source packetSent
attr title "packets sent, packetBytes"
vector 208 Scenario.node[0].udp packetSent:vector(packetBytes) ETV
attr interpolationmode none
attr recordingmode vector(packetBytes)
attr source packetSent
attr title "packets sent, packetBytes"
vector 209 Scenario.node[0].lo[0].lo rcvdPkFromHl:vector(packetBytes) ETV
attr interpolationmode none
attr recordingmode vector(packetBytes)
attr source packetReceivedFromUpper
attr title "packets received from higher layer, packetBytes"
vector 210 Scenario.node[0].lo[0].lo passedUpPk:vector(packetBytes) ETV
attr interpolationmode none
attr recordingmode vector(packetBytes)
attr source packetSentToUpper
attr title "packets passed to higher layer, packetBytes"
vector 211 Scenario.node[0].wlan[0].mac packetReceivedFromUpper:vector(packetBytes) ETV
attr interpolationmode none
attr recordingmode vector(packetBytes)
attr title "packets received from upper layer, packetBytes"
vector 212 Scenario.node[0].wlan[0].mac.dcf.channelAccess.pendingQueue incomingPacketLengths:vector ETV
attr interpolationmode none
attr recordingmode vector
attr source packetLength(packetPushStarted)
attr title "incoming packet lengths"
attr unit b
vector 213 Scenario.node[0].wlan[0].mac.dcf.channelAccess.pendingQueue incomingDataRate:vector ETV
attr interpolationmode linear
attr recordingmode vector
attr source throughput(packetPushStarted)
attr title "incoming datarate"
attr unit bps
vector 214 Scenario.node[0].wlan[0].mac.dcf.channelAccess.pendingQueue queueLength:vector ETV
attr autoWarmupFilter false
attr interpolationmode sample-hold
attr recordingmode vector
attr source "warmup(atomic(constant0(packetPushEnded) + count(packetPushStarted) - count(packetPulled) - count(packetRemoved) - count(packetDropped)))"
attr title "queue length"
attr unit pk
vector 215 Scenario.node[0].wlan[0].mac.dcf.channelAccess.pendingQueue queueBitLength:vector ETV
attr autoWarmupFilter false
attr interpolationmode sample-hold
attr recordingmode vector
attr source "warmup(atomic(constant0(packetPushEnded) + sum(packetLength(packetPushStarted)) - sum(packetLength(packetPulled)) - sum(packetLength(packetRemoved)) - sum(packetLength(packetDropped))))"
attr title "queue bit length"
attr unit b
vector 216 Scenario.node[0].wlan[0].mac.dcf.channelAccess.contention backoffPeriodGenerated:vector ETV
attr interpolationmode none
attr recordingmode vector
attr title "backoff periods"
vector 217 Scenario.node[0].wlan[0].mac.dcf.channelAccess.pendingQueue queueingTime:vector ETV
attr interpolationmode none
attr recordingmode vector
attr source queueingTime(packetPulled)
attr title "queueing times"
attr unit s
vector 218 Scenario.node[0].wlan[0].mac.dcf.channelAccess.pendingQueue outgoingPacketLengths:vector ETV
attr interpolationmode none
attr recordingmode vector
attr source packetLength(packetPulled)
attr title "outgoing packet lengths"
attr unit b
vector 219 Scenario.node[0].wlan[0].mac.dcf.channelAccess.pendingQueue outgoingDataRate:vector ETV
attr interpolationmode linear
attr recordingmode vector
attr source throughput(packetPulled)
attr title "outgoing datarate"
attr unit bps
vector 220 Scenario.node[0].wlan[0].mac.dcf datarateSelected:vector ETV
attr interpolationmode none
attr recordingmode vector
attr title "datarates selected"
vector 221 Scenario.node[0].wlan[0].mac packetSentToLower:vector(packetBytes) ETV
attr interpolationmode none
attr recordingmode vector(packetBytes)
attr title "packets sent to lower layer, packetBytes"
vector 222 Scenario.node[0].wlan[0].radio transmissionState:vector ETV
attr interpolationmode sample-hold
attr recordingmode vector
attr source transmissionStateChanged
attr title "Radio transmission state"
vector 223 Scenario.node[0].wlan[0].mac.dcf packetSentToPeer:vector(packetBytes) ETV
attr interpolationmode none
attr recordingmode vector(packetBytes)
attr title "packets sent, packetBytes"
vector 224 Scenario.node[0].wlan[0].mac.dcf packetSentToPeerMulticast:vector(packetBytes) ETV
attr interpolationmode none
attr recordingmode vector(packetBytes)
attr source ieee80211Multicast(packetSentToPeer)
attr title "packets sent: multicast, packetBytes"
vector 225 Scenario.node[0].wlan[0].mac.dcf packetSentToPeerWithoutRetry:vector(packetBytes) ETV
attr interpolationmode none
attr recordingmode vector(packetBytes)
attr source ieee80211NotRetry(packetSentToPeer)
attr title "packets sent: without retry, packetBytes"
vector 226 Scenario.node[0].wlan[0].mac.dcf.channelAccess.inProgressFrames queueingTime:vector ETV
attr interpolationmode none
attr recordingmode vector
attr source queueingTime(packetDequeued)
attr title "queueing times"
vector 227 Scenario.node[5].wlan[0].mac packetReceivedFromLower:vector(packetBytes) ETV
attr interpolationmode none
attr recordingmode vector(packetBytes)
attr title "packets received from lower layer, packetBytes"
vector 228 Scenario.node[5].wlan[0].mac.dcf packetReceivedFromPeer:vector(packetBytes) ETV
attr interpolationmode none
attr recordingmode vector(packetBytes)
attr title "packets received, packetBytes"
vector 229 Scenario.node[5].wlan[0].mac.dcf packetReceivedFromPeerMulticast:vector(packetBytes) ETV
attr interpolationmode none
attr recordingmode vector(packetBytes)
attr source ieee80211Multicast(packetReceivedFromPeer)
attr title "packets received: multicast, packetBytes"
vector 230 Scenario.node[5].wlan[0].mac.dcf packetReceivedFromPeerWithoutRetry:vector(packetBytes) ETV
attr interpolationmode none
attr recordingmode vector(packetBytes)
attr source ieee80211NotRetry(packetReceivedFromPeer)
attr title "packets received: without retry, packetBytes"
vector 231 Scenario.node[5].wlan[0].mac packetSentToUpper:vector(packetBytes) ETV
attr interpolationmode none
attr recordingmode vector(packetBytes)
attr title "packets sent to upper layer, packetBytes"
vector 232 Scenario.node[8].wlan[0].mac packetReceivedFromLower:vector(packetBytes) ETV
attr interpolationmode none
attr recordingmode vector(packetBytes)
attr title "packets received from lower layer, packetBytes"
vector 233 Scenario.node[8].wlan[0].mac.dcf packetReceivedFromPeer:vector(packetBytes) ETV
attr interpolationmode none
attr recordingmode vector(packetBytes)
attr title "packets received, packetBytes"
vector 234 Scenario.node[8].wlan[0].mac.dcf packetReceivedFromPeerMulticast:vector(packetBytes) ETV
attr interpolationmode none
attr recordingmode vector(packetBytes)
attr source ieee80211Multicast(packetReceivedFromPeer)
attr title "packets received: multicast, packetBytes"
vector 235 Scenario.node[8].wlan[0].mac.dcf packetReceivedFromPeerWithoutRetry:vector(packetBytes) ETV
attr interpolationmode none
attr recordingmode vector(packetBytes)
attr source ieee80211NotRetry(packetReceivedFromPeer)
attr title "packets received: without retry, packetBytes"
vector 236 Scenario.node[8].wlan[0].mac packetSentToUpper:vector(packetBytes) ETV
attr interpolationmode none
attr recordingmode vector(packetBytes)
attr title "packets sent to upper layer, packetBytes"
vector 237 Scenario.node[8].udp packetReceived:vector(packetBytes) ETV
attr interpolationmode none
attr recordingmode vector(packetBytes)
attr source packetReceived
attr title "packets received, packetBytes"
vector 238 Scenario.node[8].app[0] packetReceived:vector(packetBytes) ETV
attr interpolationmode none
attr recordingmode vector(packetBytes)
attr source packetReceived
attr title "packets received, packetBytes"
vector 239 Scenario.node[8].app[0] throughput:vector ETV
attr recordingmode vector
attr source throughput(packetReceived)
attr title throughput
attr unit bps
vector 240 Scenario.node[8].app[0] rcvdPkLifetime:vector ETV
attr interpolationmode none
attr recordingmode vector
attr source dataAge(packetReceived)
attr title "received packet lifetime"
attr unit s
vector 241 Scenario.node[15].wlan[0].mac.dcf frameSequenceActive:vector ETV
attr autoWarmupFilter false
attr interpolationmode sample-hold
attr recordingmode vector
attr source warmup(count(frameSequenceStarted)-count(frameSequenceFinished))
attr title "frame sequence active"
vector 242 Scenario.node[15].wlan[0].mac.dcf.channelAccess.inProgressFrames queueLength:vector ETV
attr autoWarmupFilter false
attr interpolationmode sample-hold
attr recordingmode vector
attr source "warmup(count(packetEnqueued) - count(packetDequeued))"
attr title "queue length"
vector 243 Scenario.node[15].wlan[0].mac.dcf.channelAccess.contention backoffActive:vector ETV
attr autoWarmupFilter false
attr interpolationmode sample-hold
attr recordingmode vector
attr source warmup(count(backoffStarted)-count(backoffStopped))
attr title "backoff active"
vector 244 Scenario.node[15].udp passedUpPk:vector(count) ETV
attr interpolationmode none
attr recordingmode vector(count)
attr source packetSentToUpper
attr title "packets passed up, count"
vector 245 Scenario.node[15].udp droppedPkWrongPort:vector(count) ETV
attr interpolationmode none
attr recordingmode vector(count)
attr source packetDropReasonIsNoPortFound(packetDropped)
attr title "packets dropped (wrong port), count"
vector 246 Scenario.node[15].udp droppedPkBadChecksum:vector(count) ETV
attr interpolationmode none
attr recordingmode vector(count)
attr source packetDropReasonIsIncorrectlyReceived(packetDropped)
attr title "packets dropped (checksum error), count"
vector 247 Scenario.node[15].wlan[0].radio radioMode:vector ETV
attr interpolationmode sample-hold
attr recordingmode vector
attr source radioModeChanged
attr title "Radio mode"
vector 248 Scenario.node[15].wlan[0].radio radioChannel:vector ETV
attr interpolationmode sample-hold
attr recordingmode vector
attr source radioChannelChanged
attr title "Radio channel"
vector 249 Scenario.node[15].wlan[0].radio receptionState:vector ETV
attr interpolationmode sample-hold
attr recordingmode vector
attr source receptionStateChanged
attr title "Radio reception state"
vector 250 Scenario.node[15].wlan[0].mac.dcf.channelAccess.contention stateChanged:vector ETV
attr enum IDLE,DEFER,IFS_AND_BACKOFF
attr interpolationmode none
attr recordingmode vector
attr title "contention state changed"
attr type enum
vector 251 Scenario.node[15].wlan[0].mac.dcf.recoveryProcedure contentionWindowChanged:vector ETV
attr interpolationmode sample-hold
attr recordingmode vector
attr title "contention window"
vector 252 Scenario.node[16].wlan[0].mac.dcf frameSequenceActive:vector ETV
attr autoWarmupFilter false
attr interpolationmode sample-hold
attr recordingmode vector
attr source warmup(count(frameSequenceStarted)-count(frameSequenceFinished))
attr title "frame sequence active"
vector 253 Scenario.node[16].wlan[0].mac.dcf.channelAccess.inProgressFrames queueLength:vector ETV
attr autoWarmupFilter false
attr interpolationmode sample-hold
attr recordingmode vector
attr source "warmup(count(packetEnqueued) - count(packetDequeued))"
attr title "queue length"
vector 254 Scenario.node[16].wlan[0].mac.dcf.channelAccess.contention backoffActive:vector ETV
attr autoWarmupFilter false
attr interpolationmode sample-hold
attr recordingmode vector
attr source warmup(count(backoffStarted)-count(backoffStopped))
attr title "backoff active"
vector 255 Scenario.node[16].udp passedUpPk:vector(count) ETV
attr interpolationmode none
attr recordingmode vector(count)
attr source packetSentToUpper
attr title "packets passed up, count"
vector 256 Scenario.node[16].udp droppedPkWrongPort:vector(count) ETV
attr interpolationmode none
attr recordingmode vector(count)
attr source packetDropReasonIsNoPortFound(packetDropped)
attr title "packets dropped (wrong port), count"
vector 257 Scenario.node[16].udp droppedPkBadChecksum:vector(count) ETV
attr interpolationmode none
attr recordingmode vector(count)
attr source packetDropReasonIsIncorrectlyReceived(packetDropped)
attr title "packets dropped (checksum error), count"
vector 258 Scenario.node[16].wlan[0].radio radioMode:vector ETV
attr interpolationmode sample-hold
attr recordingmode vector
attr source radioModeChanged
attr title "Radio mode"
vector 259 Scenario.node[16].wlan[0].radio radioChannel:vector ETV
attr interpolationmode sample-hold
attr recordingmode vector
attr source radioChannelChanged
attr title "Radio channel"
vector 260 Scenario.node[16].wlan[0].radio receptionState:vector ETV
attr interpolationmode sample-hold
attr recordingmode vector
attr source receptionStateChanged
attr title "Radio reception state"
vector 261 Scenario.node[16].wlan[0].mac.dcf.channelAccess.contention stateChanged:vector ETV
attr enum IDLE,DEFER,IFS_AND_BACKOFF
attr interpolationmode none
attr recordingmode vector
attr title "contention state changed"
attr type enum
vector 262 Scenario.node[16].wlan[0].mac.dcf.recoveryProcedure contentionWindowChanged:vector ETV
attr interpolationmode sample-hold
attr recordingmode vector
attr title "contention window"
vector 263 Scenario.node[17].wlan[0].mac.dcf frameSequenceActive:vector ETV
attr autoWarmupFilter false
attr interpolationmode sample-hold
attr recordingmode vector
attr source warmup(count(frameSequenceStarted)-count(frameSequenceFinished))
attr title "frame sequence active"
vector 264 Scenario.node[17].wlan[0].mac.dcf.channelAccess.inProgressFrames queueLength:vector ETV
attr autoWarmupFilter false
attr interpolationmode sample-hold
attr recordingmode vector
attr source "warmup(count(packetEnqueued) - count(packetDequeued))"
attr title "queue length"
vector 265 Scenario.node[17].wlan[0].mac.dcf.channelAccess.contention backoffActive:vector ETV
attr autoWarmupFilter false
attr interpolationmode sample-hold
attr recordingmode vector
attr source warmup(count(backoffStarted)-count(backoffStopped))
attr title "backoff active"
vector 266 Scenario.node[17].udp passedUpPk:vector(count) ETV
attr interpolationmode none
attr recordingmode vector(count)
attr source packetSentToUpper
attr title "packets passed up, count"
vector 267 Scenario.node[17].udp droppedPkWrongPort:vector(count) ETV
attr interpolationmode none
attr recordingmode vector(count)
attr source packetDropReasonIsNoPortFound(packetDropped)
attr title "packets dropped (wrong port), count"
vector 268 Scenario.node[17].udp droppedPkBadChecksum:vector(count) ETV
attr interpolationmode none
attr recordingmode vector(count)
attr source packetDropReasonIsIncorrectlyReceived(packetDropped)
attr title "packets dropped (checksum error), count"
vector 269 Scenario.node[17].wlan[0].radio radioMode:vector ETV
attr interpolationmode sample-hold
attr recordingmode vector
attr source radioModeChanged
attr title "Radio mode"
vector 270 Scenario.node[17].wlan[0].radio radioChannel:vector ETV
attr interpolationmode sample-hold
attr recordingmode vector
attr source radioChannelChanged
attr title "Radio channel"
vector 271 Scenario.node[17].wlan[0].radio receptionState:vector ETV
attr interpolationmode sample-hold
attr recordingmode vector
attr source receptionStateChanged
attr title "Radio reception state"
vector 272 Scenario.node[17].wlan[0].mac.dcf.channelAccess.contention stateChanged:vector ETV
attr enum IDLE,DEFER,IFS_AND_BACKOFF
attr interpolationmode none
attr recordingmode vector
attr title "contention state changed"
attr type enum
vector 273 Scenario.node[17].wlan[0].mac.dcf.recoveryProcedure contentionWindowChanged:vector ETV
attr interpolationmode sample-hold
attr recordingmode vector
attr title "contention window"
vector 274 Scenario.node[18].wlan[0].mac.dcf frameSequenceActive:vector ETV
attr autoWarmupFilter false
attr interpolationmode sample-hold
attr recordingmode vector
attr source warmup(count(frameSequenceStarted)-count(frameSequenceFinished))
attr title "frame sequence active"
vector 275 Scenario.node[18].wlan[0].mac.dcf.channelAccess.inProgressFrames queueLength:vector ETV
attr autoWarmupFilter false
attr interpolationmode sample-hold
attr recordingmode vector
attr source "warmup(count(packetEnqueued) - count(packetDequeued))"
attr title "queue length"
vector 276 Scenario.node[18].wlan[0].mac.dcf.channelAccess.contention backoffActive:vector ETV
attr autoWarmupFilter false
attr interpolationmode sample-hold
attr recordingmode vector
attr source warmup(count(backoffStarted)-count(backoffStopped))
attr title "backoff active"
vector 277 Scenario.node[18].udp passedUpPk:vector(count) ETV
attr interpolationmode none
attr recordingmode vector(count)
attr source packetSentToUpper
attr title "packets passed up, count"
vector 278 Scenario.node[18].udp droppedPkWrongPort:vector(count) ETV
attr interpolationmode none
attr recordingmode vector(count)
attr source packetDropReasonIsNoPortFound(packetDropped)
attr title "packets dropped (wrong port), count"
vector 279 Scenario.node[18].udp droppedPkBadChecksum:vector(count) ETV
attr interpolationmode none
attr recordingmode vector(count)
attr source packetDropReasonIsIncorrectlyReceived(packetDropped)
attr title "packets dropped (checksum error), count"
vector 280 Scenario.node[18].wlan[0].radio radioMode:vector ETV
attr interpolationmode sample-hold
attr recordingmode vector
attr source radioModeChanged
attr title "Radio mode"
vector 281 Scenario.node[18].wlan[0].radio radioChannel:vector ETV
attr interpolationmode sample-hold
attr recordingmode vector
attr source radioChannelChanged
attr title "Radio channel"
vector 282 Scenario.node[18].wlan[0].radio receptionState:vector ETV
attr interpolationmode sample-hold
attr recordingmode vector
attr source receptionStateChanged
attr title "Radio reception state"
vector 283 Scenario.node[18].wlan[0].mac.dcf.channelAccess.contention stateChanged:vector ETV
attr enum IDLE,DEFER,IFS_AND_BACKOFF
attr interpolationmode none
attr recordingmode vector
attr title "contention state changed"
attr type enum
vector 284 Scenario.node[18].wlan[0].mac.dcf.recoveryProcedure contentionWindowChanged:vector ETV
attr interpolationmode sample-hold
attr recordingmode vector
attr title "contention window"
vector 285 Scenario.node[7].wlan[0].mac packetReceivedFromLower:vector(packetBytes) ETV
attr interpolationmode none
attr recordingmode vector(packetBytes)
attr title "packets received from lower layer, packetBytes"
vector 286 Scenario.node[7].wlan[0].mac.dcf packetReceivedFromPeer:vector(packetBytes) ETV
attr interpolationmode none
attr recordingmode vector(packetBytes)
attr title "packets received, packetBytes"
vector 287 Scenario.node[7].wlan[0].mac.dcf packetReceivedFromPeerMulticast:vector(packetBytes) ETV
attr interpolationmode none
attr recordingmode vector(packetBytes)
attr source ieee80211Multicast(packetReceivedFromPeer)
attr title "packets received: multicast, packetBytes"
vector 288 Scenario.node[7].wlan[0].mac.dcf packetReceivedFromPeerWithoutRetry:vector(packetBytes) ETV
attr interpolationmode none
attr recordingmode vector(packetBytes)
attr source ieee80211NotRetry(packetReceivedFromPeer)
attr title "packets received: without retry, packetBytes"
vector 289 Scenario.node[7].wlan[0].mac packetSentToUpper:vector(packetBytes) ETV
attr interpolationmode none
attr recordingmode vector(packetBytes)
attr title "packets sent to upper layer, packetBytes"
vector 290 Scenario.node[7].udp packetReceived:vector(packetBytes) ETV
attr interpolationmode none
attr recordingmode vector(packetBytes)
attr source packetReceived
attr title "packets received, packetBytes"
vector 291 Scenario.node[7].app[0] packetReceived:vector(packetBytes) ETV
attr interpolationmode none
attr recordingmode vector(packetBytes)
attr source packetReceived
attr title "packets received, packetBytes"
vector 292 Scenario.node[7].app[0] throughput:vector ETV
attr recordingmode vector
attr source throughput(packetReceived)
attr title throughput
attr unit bps
vector 293 Scenario.node[7].app[0] rcvdPkLifetime:vector ETV
attr interpolationmode none
attr recordingmode vector
attr source dataAge(packetReceived)
attr title "received packet lifetime"
attr unit s
vector 294 Scenario.node[19].wlan[0].mac.dcf frameSequenceActive:vector ETV
attr autoWarmupFilter false
attr interpolationmode sample-hold
attr recordingmode vector
attr source warmup(count(frameSequenceStarted)-count(frameSequenceFinished))
attr title "frame sequence active"
vector 295 Scenario.node[19].wlan[0].mac.dcf.channelAccess.inProgressFrames queueLength:vector ETV
attr autoWarmupFilter false
attr interpolationmode sample-hold
attr recordingmode vector
attr source "warmup(count(packetEnqueued) - count(packetDequeued))"
attr title "queue length"
vector 296 Scenario.node[19].wlan[0].mac.dcf.channelAccess.contention backoffActive:vector ETV
attr autoWarmupFilter false
attr interpolationmode sample-hold
attr recordingmode vector
attr source warmup(count(backoffStarted)-count(backoffStopped))
attr title "backoff active"
vector 297 Scenario.node[19].udp passedUpPk:vector(count) ETV
attr interpolationmode none
attr recordingmode vector(count)
attr source packetSentToUpper
attr title "packets passed up, count"
vector 298 Scenario.node[19].udp droppedPkWrongPort:vector(count) ETV
attr interpolationmode none
attr recordingmode vector(count)
attr source packetDropReasonIsNoPortFound(packetDropped)
attr title "packets dropped (wrong port), count"
vector 299 Scenario.node[19].udp droppedPkBadChecksum:vector(count) ETV
attr interpolationmode none
attr recordingmode vector(count)
attr source packetDropReasonIsIncorrectlyReceived(packetDropped)
attr title "packets dropped (checksum error), count"
vector 300 Scenario.node[19].wlan[0].radio radioMode:vector ETV
attr interpolationmode sample-hold
attr recordingmode vector
attr source radioModeChanged
attr title "Radio mode"
vector 301 Scenario.node[19].wlan[0].radio radioChannel:vector ETV
attr interpolationmode sample-hold
attr recordingmode vector
attr source radioChannelChanged
attr title "Radio channel"
vector 302 Scenario.node[19].wlan[0].radio receptionState:vector ETV
attr interpolationmode sample-hold
attr recordingmode vector
attr source receptionStateChanged
attr title "Radio reception state"
vector 303 Scenario.node[19].wlan[0].mac.dcf.channelAccess.contention stateChanged:vector ETV
attr enum IDLE,DEFER,IFS_AND_BACKOFF
attr interpolationmode none
attr recordingmode vector
attr title "contention state changed"
attr type enum
vector 304 Scenario.node[19].wlan[0].mac.dcf.recoveryProcedure contentionWindowChanged:vector ETV
attr interpolationmode sample-hold
attr recordingmode vector
attr title "contention window"
vector 305 Scenario.node[20].wlan[0].mac.dcf frameSequenceActive:vector ETV
attr autoWarmupFilter false
attr interpolationmode sample-hold
attr recordingmode vector
attr source warmup(count(frameSequenceStarted)-count(frameSequenceFinished))
attr title "frame sequence active"
vector 306 Scenario.node[20].wlan[0].mac.dcf.channelAccess.inProgressFrames queueLength:vector ETV
attr autoWarmupFilter false
attr interpolationmode sample-hold
attr recordingmode vector
attr source "warmup(count(packetEnqueued) - count(packetDequeued))"
attr title "queue length"
vector 307 Scenario.node[20].wlan[0].mac.dcf.channelAccess.contention backoffActive:vector ETV
attr autoWarmupFilter false
attr interpolationmode sample-hold
attr recordingmode vector
attr source warmup(count(backoffStarted)-count(backoffStopped))
attr title "backoff active"
[...]
2258	5825454 38 18936 18936 232.7 232.7 2 0 0 0 0
2259	5825492 20 18936 18936 232.7 232.7 1 15 15 15 225
2304	5825512 38 19388 19388 240.1 240.1 2 0 0 0 0
2305	5825550 38 19388 19388 240.1 240.1 2 0 0 0 0
2306	5825588 38 19388 19388 240.1 240.1 2 0 0 0 0
2307	5825626 19 19388 19388 240.1 240.1 1 0 0 0 0
2308	5825645 19 19388 19388 240.1 240.1 1 0 0 0 0
2309	5825664 19 19388 19388 240.1 240.1 1 0 0 0 0
2310	5825683 57 19388 19388 240.1 240.1 3 0 2 2 4
2311	5825740 19 19388 19388 240.1 240.1 1 3 3 3 9
2312	5825759 19 19388 19388 240.1 240.1 1 1 1 1 1
2313	5825778 38 19388 19388 240.1 240.1 2 0 0 0 0
2314	5825816 20 19388 19388 240.1 240.1 1 15 15 15 225
2326	5825836 38 19407 19407 240.2 240.2 2 0 0 0 0
2327	5825874 38 19407 19407 240.2 240.2 2 0 0 0 0
2328	5825912 38 19407 19407 240.2 240.2 2 0 0 0 0
2329	5825950 19 19407 19407 240.2 240.2 1 0 0 0 0
2330	5825969 19 19407 19407 240.2 240.2 1 0 0 0 0
2331	5825988 19 19407 19407 240.2 240.2 1 0 0 0 0
2332	5826007 57 19407 19407 240.2 240.2 3 0 2 2 4
2333	5826064 19 19407 19407 240.2 240.2 1 3 3 3 9
2334	5826083 19 19407 19407 240.2 240.2 1 1 1 1 1
2335	5826102 38 19407 19407 240.2 240.2 2 0 0 0 0
2336	5826140 20 19407 19407 240.2 240.2 1 15 15 15 225
2360	5826160 38 19919 19919 250.1 250.1 2 0 0 0 0
2361	5826198 38 19919 19919 250.1 250.1 2 0 0 0 0
2362	5826236 38 19919 19919 250.1 250.1 2 0 0 0 0
2363	5826274 19 19919 19919 250.1 250.1 1 0 0 0 0
2364	5826293 19 19919 19919 250.1 250.1 1 0 0 0 0
2365	5826312 19 19919 19919 250.1 250.1 1 0 0 0 0
2366	5826331 57 19919 19919 250.1 250.1 3 0 2 2 4
2367	5826388 19 19919 19919 250.1 250.1 1 3 3 3 9
2368	5826407 19 19919 19919 250.1 250.1 1 1 1 1 1
2369	5826426 38 19919 19919 250.1 250.1 2 0 0 0 0
2370	5826464 20 19919 19919 250.1 250.1 1 15 15 15 225
2371	5826484 38 19919 19919 250.1 250.1 2 0 0 0 0
2372	5826522 38 19919 19919 250.1 250.1 2 0 0 0 0
2373	5826560 38 19919 19919 250.1 250.1 2 0 0 0 0
2374	5826598 19 19919 19919 250.1 250.1 1 0 0 0 0
2375	5826617 19 19919 19919 250.1 250.1 1 0 0 0 0
2376	5826636 19 19919 19919 250.1 250.1 1 0 0 0 0
2377	5826655 57 19919 19919 250.1 250.1 3 0 2 2 4
2378	5826712 19 19919 19919 250.1 250.1 1 3 3 3 9
2379	5826731 19 19919 19919 250.1 250.1 1 1 1 1 1
2380	5826750 38 19919 19919 250.1 250.1 2 0 0 0 0
2381	5826788 20 19919 19919 250.1 250.1 1 15 15 15 225
2382	5826808 38 19919 19919 250.1 250.1 2 0 0 0 0
2383	5826846 38 19919 19919 250.1 250.1 2 0 0 0 0
2384	5826884 38 19919 19919 250.1 250.1 2 0 0 0 0
2385	5826922 19 19919 19919 250.1 250.1 1 0 0 0 0
2386	5826941 19 19919 19919 250.1 250.1 1 0 0 0 0
2387	5826960 19 19919 19919 250.1 250.1 1 0 0 0 0
2388	5826979 57 19919 19919 250.1 250.1 3 0 2 2 4
2389	5827036 19 19919 19919 250.1 250.1 1 3 3 3 9
2390	5827055 19 19919 19919 250.1 250.1 1 1 1 1 1
2391	5827074 38 19919 19919 250.1 250.1 2 0 0 0 0
2392	5827112 20 19919 19919 250.1 250.1 1 15 15 15 225
2397	5827132 38 20060 20060 252.7 252.7 2 0 0 0 0
2398	5827170 38 20060 20060 252.7 252.7 2 0 0 0 0
2399	5827208 38 20060 20060 252.7 252.7 2 0 0 0 0
2400	5827246 19 20060 20060 252.7 252.7 1 0 0 0 0
2401	5827265 19 20060 20060 252.7 252.7 1 0 0 0 0
2402	5827284 19 20060 20060 252.7 252.7 1 0 0 0 0
2403	5827303 57 20060 20060 252.7 252.7 3 0 2 2 4
2404	5827360 19 20060 20060 252.7 252.7 1 3 3 3 9
2405	5827379 19 20060 20060 252.7 252.7 1 1 1 1 1
2406	5827398 38 20060 20060 252.7 252.7 2 0 0 0 0
2407	5827436 20 20060 20060 252.7 252.7 1 15 15 15 225
2441	5827456 38 20451 20451 260.1 260.1 2 0 0 0 0
2442	5827494 38 20451 20451 260.1 260.1 2 0 0 0 0
2443	5827532 38 20451 20451 260.1 260.1 2 0 0 0 0
2444	5827570 19 20451 20451 260.1 260.1 1 0 0 0 0
2445	5827589 19 20451 20451 260.1 260.1 1 0 0 0 0
2446	5827608 19 20451 20451 260.1 260.1 1 0 0 0 0
2447	5827627 57 20451 20451 260.1 260.1 3 0 2 2 4
2448	5827684 19 20451 20451 260.1 260.1 1 3 3 3 9
2449	5827703 19 20451 20451 260.1 260.1 1 1 1 1 1
2450	5827722 38 20451 20451 260.1 260.1 2 0 0 0 0
2451	5827760 20 20451 20451 260.1 260.1 1 15 15 15 225
2452	5827780 38 20471 20471 260.2 260.2 2 0 0 0 0
2453	5827818 38 20471 20471 260.2 260.2 2 0 0 0 0
2454	5827856 38 20471 20471 260.2 260.2 2 0 0 0 0
2455	5827894 19 20471 20471 260.2 260.2 1 0 0 0 0
2456	5827913 19 20471 20471 260.2 260.2 1 0 0 0 0
2457	5827932 19 20471 20471 260.2 260.2 1 0 0 0 0
2458	5827951 57 20471 20471 260.2 260.2 3 0 2 2 4
2459	5828008 19 20471 20471 260.2 260.2 1 3 3 3 9
2460	5828027 19 20471 20471 260.2 260.2 1 1 1 1 1
2461	5828046 38 20471 20471 260.2 260.2 2 0 0 0 0
2462	5828084 20 20471 20471 260.2 260.2 1 15 15 15 225
2463	5828104 38 20471 20471 260.2 260.2 2 0 0 0 0
2464	5828142 38 20471 20471 260.2 260.2 2 0 0 0 0
2465	5828180 38 20471 20471 260.2 260.2 2 0 0 0 0
2466	5828218 19 20471 20471 260.2 260.2 1 0 0 0 0
2467	5828237 19 20471 20471 260.2 260.2 1 0 0 0 0
2468	5828256 19 20471 20471 260.2 260.2 1 0 0 0 0
2469	5828275 57 20471 20471 260.2 260.2 3 0 2 2 4
2470	5828332 19 20471 20471 260.2 260.2 1 3 3 3 9
2471	5828351 19 20471 20471 260.2 260.2 1 1 1 1 1
2472	5828370 38 20471 20471 260.2 260.2 2 0 0 0 0
2473	5828408 20 20471 20471 260.2 260.2 1 15 15 15 225
2480	5828428 38 20995 20995 270.1 270.1 2 0 0 0 0
2481	5828466 38 20995 20995 270.1 270.1 2 0 0 0 0
2482	5828504 38 20995 20995 270.1 270.1 2 0 0 0 0
2483	5828542 19 20995 20995 270.1 270.1 1 0 0 0 0
2484	5828561 19 20995 20995 270.1 270.1 1 0 0 0 0
2485	5828580 19 20995 20995 270.1 270.1 1 0 0 0 0
2486	5828599 57 20995 20995 270.1 270.1 3 0 2 2 4
2487	5828656 19 20995 20995 270.1 270.1 1 3 3 3 9
2488	5828675 19 20995 20995 270.1 270.1 1 1 1 1 1
2489	5828694 38 20995 20995 270.1 270.1 2 0 0 0 0
2490	5828732 20 20995 20995 270.1 270.1 1 15 15 15 225
2491	5828752 38 20995 20995 270.1 270.1 2 0 0 0 0
2492	5828790 38 20995 20995 270.1 270.1 2 0 0 0 0
2493	5828828 38 20995 20995 270.1 270.1 2 0 0 0 0
2494	5828866 19 20995 20995 270.1 270.1 1 0 0 0 0
2495	5828885 19 20995 20995 270.1 270.1 1 0 0 0 0
2496	5828904 19 20995 20995 270.1 270.1 1 0 0 0 0
2497	5828923 57 20995 20995 270.1 270.1 3 0 2 2 4
2498	5828980 19 20995 20995 270.1 270.1 1 3 3 3 9
2499	5828999 19 20995 20995 270.1 270.1 1 1 1 1 1
2500	5829018 38 20995 20995 270.1 270.1 2 0 0 0 0
2501	5829056 20 20995 20995 270.1 270.1 1 15 15 15 225
2502	5829076 38 20995 20995 270.1 270.1 2 0 0 0 0
2503	5829114 38 20995 20995 270.1 270.1 2 0 0 0 0
2504	5829152 38 20995 20995 270.1 270.1 2 0 0 0 0
2505	5829190 19 20995 20995 270.1 270.1 1 0 0 0 0
2506	5829209 19 20995 20995 270.1 270.1 1 0 0 0 0
2507	5829228 19 20995 20995 270.1 270.1 1 0 0 0 0
2508	5829247 57 20995 20995 270.1 270.1 3 0 2 2 4
2509	5829304 19 20995 20995 270.1 270.1 1 3 3 3 9
2510	5829323 19 20995 20995 270.1 270.1 1 1 1 1 1
2511	5829342 38 20995 20995 270.1 270.1 2 0 0 0 0
2512	5829380 20 20995 20995 270.1 270.1 1 15 15 15 225
2513	5829400 38 20995 20995 270.1 270.1 2 0 0 0 0
2514	5829438 38 20995 20995 270.1 270.1 2 0 0 0 0
2515	5829476 38 20995 20995 270.1 270.1 2 0 0 0 0
2516	5829514 19 20995 20995 270.1 270.1 1 0 0 0 0
2517	5829533 19 20995 20995 270.1 270.1 1 0 0 0 0
2518	5829552 19 20995 20995 270.1 270.1 1 0 0 0 0
2519	5829571 57 20995 20995 270.1 270.1 3 0 2 2 4
2520	5829628 19 20995 20995 270.1 270.1 1 3 3 3 9
2521	5829647 19 20995 20995 270.1 270.1 1 1 1 1 1
2522	5829666 38 20995 20995 270.1 270.1 2 0 0 0 0
2523	5829704 20 20995 20995 270.1 270.1 1 15 15 15 225
2524	5829724 38 21144 21144 272.7 272.7 2 0 0 0 0
2525	5829762 38 21144 21144 272.7 272.7 2 0 0 0 0
2526	5829800 38 21144 21144 272.7 272.7 2 0 0 0 0
2527	5829838 19 21144 21144 272.7 272.7 1 0 0 0 0
2528	5829857 19 21144 21144 272.7 272.7 1 0 0 0 0
2529	5829876 19 21144 21144 272.7 272.7 1 0 0 0 0
2530	5829895 57 21144 21144 272.7 272.7 3 0 2 2 4
2531	5829952 19 21144 21144 272.7 272.7 1 3 3 3 9
2532	5829971 19 21144 21144 272.7 272.7 1 1 1 1 1
2533	5829990 38 21144 21144 272.7 272.7 2 0 0 0 0
2534	5830028 20 21144 21144 272.7 272.7 1 15 15 15 225
2535	5830048 38 21144 21144 272.7 272.7 2 0 0 0 0
2536	5830086 38 21144 21144 272.7 272.7 2 0 0 0 0
2537	5830124 38 21144 21144 272.7 272.7 2 0 0 0 0
2538	5830162 19 21144 21144 272.7 272.7 1 0 0 0 0
2539	5830181 19 21144 21144 272.7 272.7 1 0 0 0 0
2540	5830200 19 21144 21144 272.7 272.7 1 0 0 0 0
2541	5830219 57 21144 21144 272.7 272.7 3 0 2 2 4
2542	5830276 19 21144 21144 272.7 272.7 1 3 3 3 9
2543	5830295 19 21144 21144 272.7 272.7 1 1 1 1 1
2544	5830314 38 21144 21144 272.7 272.7 2 0 0 0 0
2545	5830352 20 21144 21144 272.7 272.7 1 15 15 15 225
2549	5830372 38 21584 21584 280.1 280.1 2 0 0 0 0
2550	5830410 38 21584 21584 280.1 280.1 2 0 0 0 0
2551	5830448 38 21584 21584 280.1 280.1 2 0 0 0 0
2552	5830486 19 21584 21584 280.1 280.1 1 0 0 0 0
2553	5830505 19 21584 21584 280.1 280.1 1 0 0 0 0
2554	5830524 19 21584 21584 280.1 280.1 1 0 0 0 0
2555	5830543 57 21584 21584 280.1 280.1 3 0 2 2 4
2556	5830600 19 21584 21584 280.1 280.1 1 3 3 3 9
2557	5830619 19 21584 21584 280.1 280.1 1 1 1 1 1
2558	5830638 38 21584 21584 280.1 280.1 2 0 0 0 0
2559	5830676 20 21584 21584 280.1 280.1 1 15 15 15 225
2560	5830696 38 21584 21584 280.1 280.1 2 0 0 0 0
2561	5830734 38 21584 21584 280.1 280.1 2 0 0 0 0
2562	5830772 38 21584 21584 280.1 280.1 2 0 0 0 0
2563	5830810 19 21584 21584 280.1 280.1 1 0 0 0 0
2564	5830829 19 21584 21584 280.1 280.1 1 0 0 0 0
2565	5830848 19 21584 21584 280.1 280.1 1 0 0 0 0
2566	5830867 57 21584 21584 280.1 280.1 3 0 2 2 4
2567	5830924 19 21584 21584 280.1 280.1 1 3 3 3 9
2568	5830943 19 21584 21584 280.1 280.1 1 1 1 1 1
2569	5830962 38 21584 21584 280.1 280.1 2 0 0 0 0
2570	5831000 20 21584 21584 280.1 280.1 1 15 15 15 225
2571	5831020 38 21604 21604 280.2 280.2 2 0 0 0 0
2572	5831058 38 21604 21604 280.2 280.2 2 0 0 0 0
2573	5831096 38 21604 21604 280.2 280.2 2 0 0 0 0
2574	5831134 19 21604 21604 280.2 280.2 1 0 0 0 0
2575	5831153 19 21604 21604 280.2 280.2 1 0 0 0 0
2576	5831172 19 21604 21604 280.2 280.2 1 0 0 0 0
2577	5831191 57 21604 21604 280.2 280.2 3 0 2 2 4
2578	5831248 19 21604 21604 280.2 280.2 1 3 3 3 9
2579	5831267 19 21604 21604 280.2 280.2 1 1 1 1 1
2580	5831286 38 21604 21604 280.2 280.2 2 0 0 0 0
2581	5831324 20 21604 21604 280.2 280.2 1 15 15 15 225
2582	5831344 38 21604 21604 280.2 280.2 2 0 0 0 0
2583	5831382 38 21604 21604 280.2 280.2 2 0 0 0 0
2584	5831420 38 21604 21604 280.2 280.2 2 0 0 0 0
2585	5831458 19 21604 21604 280.2 280.2 1 0 0 0 0
2586	5831477 19 21604 21604 280.2 280.2 1 0 0 0 0
2587	5831496 19 21604 21604 280.2 280.2 1 0 0 0 0
2588	5831515 57 21604 21604 280.2 280.2 3 0 2 2 4
2589	5831572 19 21604 21604 280.2 280.2 1 3 3 3 9
2590	5831591 19 21604 21604 280.2 280.2 1 1 1 1 1
2591	5831610 38 21604 21604 280.2 280.2 2 0 0 0 0
2592	5831648 20 21604 21604 280.2 280.2 1 15 15 15 225
2605	5831668 38 22192 22192 290.1 290.1 2 0 0 0 0
2606	5831706 38 22192 22192 290.1 290.1 2 0 0 0 0
2607	5831744 38 22192 22192 290.1 290.1 2 0 0 0 0
2608	5831782 19 22192 22192 290.1 290.1 1 0 0 0 0
2609	5831801 19 22192 22192 290.1 290.1 1 0 0 0 0
2610	5831820 19 22192 22192 290.1 290.1 1 0 0 0 0
2611	5831839 57 22192 22192 290.1 290.1 3 0 2 2 4
2612	5831896 19 22192 22192 290.1 290.1 1 3 3 3 9
2613	5831915 19 22192 22192 290.1 290.1 1 1 1 1 1
2614	5831934 38 22192 22192 290.1 290.1 2 0 0 0 0
2615	5831972 20 22192 22192 290.1 290.1 1 15 15 15 225
2616	5831992 38 22192 22192 290.1 290.1 2 0 0 0 0
2617	5832030 38 22192 22192 290.1 290.1 2 0 0 0 0
2618	5832068 38 22192 22192 290.1 290.1 2 0 0 0 0
2619	5832106 19 22192 22192 290.1 290.1 1 0 0 0 0
2620	5832125 19 22192 22192 290.1 290.1 1 0 0 0 0
2621	5832144 19 22192 22192 290.1 290.1 1 0 0 0 0
2622	5832163 57 22192 22192 290.1 290.1 3 0 2 2 4
2623	5832220 19 22192 22192 290.1 290.1 1 3 3 3 9
2624	5832239 19 22192 22192 290.1 290.1 1 1 1 1 1
2625	5832258 38 22192 22192 290.1 290.1 2 0 0 0 0
2626	5832296 20 22192 22192 290.1 290.1 1 15 15 15 225
2627	5832316 38 22192 22192 290.1 290.1 2 0 0 0 0
2628	5832354 38 22192 22192 290.1 290.1 2 0 0 0 0
2629	5832392 38 22192 22192 290.1 290.1 2 0 0 0 0
2630	5832430 19 22192 22192 290.1 290.1 1 0 0 0 0
2631	5832449 19 22192 22192 290.1 290.1 1 0 0 0 0
2632	5832468 19 22192 22192 290.1 290.1 1 0 0 0 0
2633	5832487 57 22192 22192 290.1 290.1 3 0 2 2 4
2634	5832544 19 22192 22192 290.1 290.1 1 3 3 3 9
2635	5832563 19 22192 22192 290.1 290.1 1 1 1 1 1
2636	5832582 38 22192 22192 290.1 290.1 2 0 0 0 0
2637	5832620 20 22192 22192 290.1 290.1 1 15 15 15 225
2638	5832640 38 22192 22192 290.1 290.1 2 0 0 0 0
2639	5832678 38 22192 22192 290.1 290.1 2 0 0 0 0
2640	5832716 38 22192 22192 290.1 290.1 2 0 0 0 0
2641	5832754 19 22192 22192 290.1 290.1 1 0 0 0 0
2642	5832773 19 22192 22192 290.1 290.1 1 0 0 0 0
2643	5832792 19 22192 22192 290.1 290.1 1 0 0 0 0
2644	5832811 57 22192 22192 290.1 290.1 3 0 2 2 4
2645	5832868 19 22192 22192 290.1 290.1 1 3 3 3 9
2646	5832887 19 22192 22192 290.1 290.1 1 1 1 1 1
2647	5832906 38 22192 22192 290.1 290.1 2 0 0 0 0
2648	5832944 20 22192 22192 290.1 290.1 1 15 15 15 225
2656	5832964 38 22350 22350 292.7 292.7 2 0 0 0 0
2657	5833002 38 22350 22350 292.7 292.7 2 0 0 0 0
2658	5833040 38 22350 22350 292.7 292.7 2 0 0 0 0
2659	5833078 19 22350 22350 292.7 292.7 1 0 0 0 0
2660	5833097 19 22350 22350 292.7 292.7 1 0 0 0 0
2661	5833116 19 22350 22350 292.7 292.7 1 0 0 0 0
2662	5833135 57 22350 22350 292.7 292.7 3 0 2 2 4
2663	5833192 19 22350 22350 292.7 292.7 1 3 3 3 9
2664	5833211 19 22350 22350 292.7 292.7 1 1 1 1 1
2665	5833230 38 22350 22350 292.7 292.7 2 0 0 0 0
2666	5833268 20 22350 22350 292.7 292.7 1 15 15 15 225
2673	5833288 38 22355 22355 292.8 292.8 2 0 0 0 0
2674	5833326 38 22355 22355 292.8 292.8 2 0 0 0 0
2675	5833364 38 22355 22355 292.8 292.8 2 0 0 0 0
2676	5833402 19 22355 22355 292.8 292.8 1 0 0 0 0
2677	5833421 19 22355 22355 292.8 292.8 1 0 0 0 0
2678	5833440 19 22355 22355 292.8 292.8 1 0 0 0 0
2679	5833459 57 22355 22355 292.8 292.8 3 0 2 2 4
2680	5833516 19 22355 22355 292.8 292.8 1 3 3 3 9
2681	5833535 19 22355 22355 292.8 292.8 1 1 1 1 1
2682	5833554 38 22355 22355 292.8 292.8 2 0 0 0 0
2683	5833592 20 22355 22355 292.8 292.8 1 15 15 15 225
2699	5833612 55268 22738 22738 0.3 300 2998 0 0 0 0
2700	5888880 55268 22738 22738 0.3 300 2998 0 0 0 0
2701	5944148 55268 22738 22738 0.3 300 2998 0 0 0 0
2702	5999416 55268 22738 22738 0.3 300 2998 0 0 0 0
2703	6054684 55268 22738 22738 0.3 300 2998 0 0 0 0
2704	6109952 55268 22738 22738 0.3 300 2998 0 0 0 0
2705	6165220 55268 22738 22738 0.3 300 2998 0 0 0 0
2706	6220488 55268 22738 22738 0.3 300 2998 0 0 0 0
2707	6275756 55268 22738 22738 0.3 300 2998 0 0 0 0
2708	6331024 55268 22738 22738 0.3 300 2998 0 0 0 0
2709	6386292 55268 22738 22738 0.3 300 2998 0 0 0 0
2710	6441560 55268 22738 22738 0.3 300 2998 0 0 0 0
2711	6496828 30042 22738 22738 140.3 300 1598 0 0 0 0
2712	6526870 30042 22738 22738 140.3 300 1598 0 0 0 0
2713	6556912 26282 22738 22738 160.3 300 1398 0 0 0 0
2714	6583194 26282 22738 22738 160.3 300 1398 0 0 0 0
2715	6609476 24421 22738 22738 170.2 300 1299 0 0 0 0
2716	6633897 24421 22738 22738 170.2 300 1299 0 0 0 0
2717	6658318 22522 22738 22738 180.3 300 1198 0 0 0 0
2718	6680840 22522 22738 22738 180.3 300 1198 0 0 0 0
2719	6703362 20661 22738 22738 190.2 300 1099 0 0 0 0
2720	6724023 20661 22738 22738 190.2 300 1099 0 0 0 0
2721	6744684 18762 22738 22738 200.3 300 998 0 0 0 0
2722	6763446 18762 22738 22738 200.3 300 998 0 0 0 0
2723	6782208 18762 22738 22738 200.3 300 998 0 0 0 0
2724	6800970 18762 22738 22738 200.3 300 998 0 0 0 0
2725	6819732 16901 22738 22738 210.2 300 899 0 0 0 0
2726	6836633 16901 22738 22738 210.2 300 899 0 0 0 0
2727	6853534 15021 22738 22738 220.2 300 799 0 0 0 0
2728	6868555 15021 22738 22738 220.2 300 799 0 0 0 0
2729	6883576 15021 22738 22738 220.2 300 799 0 0 0 0
2730	6898597 15002 22738 22738 220.3 300 798 0 0 0 0
2731	6913599 15002 22738 22738 220.3 300 798 0 0 0 0
2732	6928601 15002 22738 22738 220.3 300 798 0 0 0 0
2733	6943603 13141 22738 22738 230.2 300 699 0 0 0 0
2734	6956744 13141 22738 22738 230.2 300 699 0 0 0 0
2735	6969885 13141 22738 22738 230.2 300 699 0 0 0 0
2736	6983026 12651 22738 22738 232.8 300 673 0 0 0 0
2737	6995677 12651 22738 22738 232.8 300 673 0 0 0 0
2738	7008328 12651 22738 22738 232.8 300 673 0 0 0 0
2739	7020979 11261 22738 22738 240.2 300 599 0 0 0 0
2740	7032240 11261 22738 22738 240.2 300 599 0 0 0 0
2741	7043501 11261 22738 22738 240.2 300 599 0 0 0 0
2742	7054762 11242 22738 22738 240.3 300 598 0 0 0 0
2743	7066004 11242 22738 22738 240.3 300 598 0 0 0 0
2744	7077246 11242 22738 22738 240.3 300 598 0 0 0 0
2745	7088488 9381 22738 22738 250.2 300 499 0 0 0 0
2746	7097869 9381 22738 22738 250.2 300 499 0 0 0 0
2747	7107250 9381 22738 22738 250.2 300 499 0 0 0 0
2748	7116631 9381 22738 22738 250.2 300 499 0 0 0 0
2749	7126012 9381 22738 22738 250.2 300 499 0 0 0 0
2750	7135393 9381 22738 22738 250.2 300 499 0 0 0 0
2751	7144774 9381 22738 22738 250.2 300 499 0 0 0 0
2752	7154155 9381 22738 22738 250.2 300 499 0 0 0 0
2753	7163536 9381 22738 22738 250.2 300 499 0 0 0 0
2754	7172917 8891 22738 22738 252.8 300 473 0 0 0 0
2755	7181808 8891 22738 22738 252.8 300 473 0 0 0 0
2756	7190699 8891 22738 22738 252.8 300 473 0 0 0 0
2757	7199590 7501 22738 22738 260.2 300 399 0 0 0 0
2758	7207091 7501 22738 22738 260.2 300 399 0 0 0 0
2759	7214592 7501 22738 22738 260.2 300 399 0 0 0 0
2760	7222093 7482 22738 22738 260.3 300 398 0 0 0 0
2761	7229575 7482 22738 22738 260.3 300 398 0 0 0 0
2762	7237057 7482 22738 22738 260.3 300 398 0 0 0 0
2763	7244539 7482 22738 22738 260.3 300 398 0 0 0 0
2764	7252021 7482 22738 22738 260.3 300 398 0 0 0 0
2765	7259503 7482 22738 22738 260.3 300 398 0 0 0 0
2766	7266985 5621 22738 22738 270.2 300 299 0 0 0 0
2767	7272606 5621 22738 22738 270.2 300 299 0 0 0 0
2768	7278227 5621 22738 22738 270.2 300 299 0 0 0 0
2769	7283848 5621 22738 22738 270.2 300 299 0 0 0 0
2770	7289469 5621 22738 22738 270.2 300 299 0 0 0 0
2771	7295090 5621 22738 22738 270.2 300 299 0 0 0 0
2772	7300711 5621 22738 22738 270.2 300 299 0 0 0 0
2773	7306332 5621 22738 22738 270.2 300 299 0 0 0 0
2774	7311953 5621 22738 22738 270.2 300 299 0 0 0 0
2775	7317574 5621 22738 22738 270.2 300 299 0 0 0 0
2776	7323195 5621 22738 22738 270.2 300 299 0 0 0 0
2777	7328816 5621 22738 22738 270.2 300 299 0 0 0 0
2778	7334437 5131 22738 22738 272.8 300 273 0 0 0 0
2779	7339568 5131 22738 22738 272.8 300 273 0 0 0 0
2780	7344699 5131 22738 22738 272.8 300 273 0 0 0 0
2781	7349830 5131 22738 22738 272.8 300 273 0 0 0 0
2782	7354961 5131 22738 22738 272.8 300 273 0 0 0 0
2783	7360092 5131 22738 22738 272.8 300 273 0 0 0 0
2784	7365223 3741 22738 22738 280.2 300 199 0 0 0 0
2785	7368964 3741 22738 22738 280.2 300 199 0 0 0 0
2786	7372705 3741 22738 22738 280.2 300 199 0 0 0 0
2787	7376446 3741 22738 22738 280.2 300 199 0 0 0 0
2788	7380187 3741 22738 22738 280.2 300 199 0 0 0 0
2789	7383928 3741 22738 22738 280.2 300 199 0 0 0 0
2790	7387669 3722 22738 22738 280.3 300 198 0 0 0 0
2791	7391391 3722 22738 22738 280.3 300 198 0 0 0 0
2792	7395113 3722 22738 22738 280.3 300 198 0 0 0 0
2793	7398835 3722 22738 22738 280.3 300 198 0 0 0 0
2794	7402557 3722 22738 22738 280.3 300 198 0 0 0 0
2795	7406279 3722 22738 22738 280.3 300 198 0 0 0 0
2796	7410001 1861 22738 22738 290.2 300 99 0 0 0 0
2797	7411862 1861 22738 22738 290.2 300 99 0 0 0 0
2798	7413723 1861 22738 22738 290.2 300 99 0 0 0 0
2799	7415584 1861 22738 22738 290.2 300 99 0 0 0 0
2800	7417445 1861 22738 22738 290.2 300 99 0 0 0 0
2801	7419306 1861 22738 22738 290.2 300 99 0 0 0 0
2802	7421167 1861 22738 22738 290.2 300 99 0 0 0 0
2803	7423028 1861 22738 22738 290.2 300 99 0 0 0 0
2804	7424889 1861 22738 22738 290.2 300 99 0 0 0 0
2805	7426750 1861 22738 22738 290.2 300 99 0 0 0 0
2806	7428611 1861 22738 22738 290.2 300 99 0 0 0 0
2807	7430472 1861 22738 22738 290.2 300 99 0 0 0 0
2808	7432333 1371 22738 22738 292.8 300 73 0 0 0 0
2809	7433704 1371 22738 22738 292.8 300 73 0 0 0 0
2810	7435075 1371 22738 22738 292.8 300 73 0 0 0 0
2811	7436446 1352 22738 22738 292.9 300 72 0 0 0 0
2812	7437798 1352 22738 22738 292.9 300 72 0 0 0 0
2813	7439150 1352 22738 22738 292.9 300 72 0 0 0 0

